/*---------------------------------------------------------------------------*\
| =========                 |                                                 |
| \\      /  F ield         | OpenFOAM: The Open Source CFD Toolbox           |
|  \\    /   O peration     | Version:  4.1                                   |
|   \\  /    A nd           | Web:      www.OpenFOAM.org                      |
|    \\/     M anipulation  |                                                 |
\*---------------------------------------------------------------------------*/
Build  : 4.1
Exec   : interDyMFoamUsrc -parallel
Date   : Feb 12 2019
Time   : 12:04:33
Host   : "RN10"
PID    : 3313
Case   : /home/rn10/OpenFOAM/Tanks/2019/RerunsForIMPSRC/L_1b4L_H_5b4d/Shallow_H0p006
nProcs : 4
Slaves : 
3
(
"RN10.3314"
"RN10.3315"
"RN10.3316"
)

Pstream initialized with:
    floatTransfer      : 0
    nProcsSimpleSum    : 0
    commsType          : nonBlocking
    polling iterations : 0
sigFpe : Enabling floating point exception trapping (FOAM_SIGFPE).
fileModificationChecking : Monitoring run-time modified files using timeStampMaster
allowSystemOperations : Allowing user-supplied system call operations

// * * * * * * * * * * * * * * * * * * * * * * * * * * * * * * * * * * * * * //
Create time

Create mesh for time = 0

Selecting dynamicFvMesh staticFvMesh

PIMPLE: Operating solver in PISO mode

Reading field p_rgh

Reading field U

Reading/calculating face flux field phi

Reading field sand

Reading field Uana

Reading transportProperties

Selecting incompressible transport model Newtonian
Selecting incompressible transport model Newtonian
Reading field relax

Selecting turbulence model type laminar

Reading g

Reading hRef
Calculating field g.h

No MRF models present

Writing 0 cells to cellSet relaxCells
No finite volume options present

GAMG:  Solving for pcorr, Initial residual = 0, Final residual = 0, No Iterations 0
time step continuity errors : sum local = 0, global = 0, cumulative = 0
Reading/calculating face velocity Uf

Courant Number mean: 0 max: 0

Starting time loop

--> FOAM Warning : 
    From function void Foam::timeControl::read(const Foam::dictionary&)
    in file db/functionObjects/timeControl/timeControl.C at line 89
    Reading "/home/rn10/OpenFOAM/Tanks/2019/RerunsForIMPSRC/L_1b4L_H_5b4d/Shallow_H0p006/system/controlDict.functions.waveprobes" from line 66 to line 88
    Using deprecated 'outputControl'
    Please use 'writeControl' with 'writeInterval'
Courant Number mean: 0 max: 0
Interface Courant Number mean: 0 max: 0
deltaT = 0.00119904
Time = 0.00119904

PIMPLE: iteration 1
MULES: Solving for alpha.water
Phase-1 volume fraction = 0.400685  Min(alpha.water) = 0  Max(alpha.water) = 1
MULES: Solving for alpha.water
Phase-1 volume fraction = 0.400685  Min(alpha.water) = 0  Max(alpha.water) = 1
MULES: Solving for alpha.water
Phase-1 volume fraction = 0.400685  Min(alpha.water) = 0  Max(alpha.water) = 1
GAMG:  Solving for p_rgh, Initial residual = 1, Final residual = 0.002486, No Iterations 1
time step continuity errors : sum local = 0.00865786, global = -1.93968e-18, cumulative = -1.93968e-18
GAMG:  Solving for p_rgh, Initial residual = 0.00147453, Final residual = 9.52464e-06, No Iterations 4
time step continuity errors : sum local = 6.66773e-05, global = -4.11686e-20, cumulative = -1.98085e-18
GAMG:  Solving for p_rgh, Initial residual = 0.00028, Final residual = 9.60778e-09, No Iterations 16
time step continuity errors : sum local = 6.69447e-08, global = 1.38524e-22, cumulative = -1.98071e-18
ExecutionTime = 1.37 s  ClockTime = 1 s

Courant Number mean: 0.000519039 max: 0.135828
Interface Courant Number mean: 0 max: 0
deltaT = 0.00143712
Time = 0.00263616

PIMPLE: iteration 1
MULES: Solving for alpha.water
Phase-1 volume fraction = 0.400685  Min(alpha.water) = 0  Max(alpha.water) = 1
MULES: Solving for alpha.water
Phase-1 volume fraction = 0.400685  Min(alpha.water) = 0  Max(alpha.water) = 1.00001
MULES: Solving for alpha.water
Phase-1 volume fraction = 0.400685  Min(alpha.water) = 0  Max(alpha.water) = 1.00001
GAMG:  Solving for p_rgh, Initial residual = 0.00016027, Final residual = 1.38813e-06, No Iterations 1
time step continuity errors : sum local = 1.22571e-05, global = -6.04065e-21, cumulative = -1.98675e-18
GAMG:  Solving for p_rgh, Initial residual = 3.83389e-06, Final residual = 1.25616e-08, No Iterations 6
time step continuity errors : sum local = 1.11021e-07, global = 1.9545e-22, cumulative = -1.98655e-18
GAMG:  Solving for p_rgh, Initial residual = 2.66774e-06, Final residual = 3.8274e-09, No Iterations 4
time step continuity errors : sum local = 3.38249e-08, global = 1.89526e-22, cumulative = -1.98636e-18
ExecutionTime = 1.98 s  ClockTime = 2 s

Courant Number mean: 0.000521232 max: 0.107523
Interface Courant Number mean: 0 max: 0
deltaT = 0.00172256
Time = 0.00435873

PIMPLE: iteration 1
MULES: Solving for alpha.water
Phase-1 volume fraction = 0.400685  Min(alpha.water) = 0  Max(alpha.water) = 1.00001
MULES: Solving for alpha.water
Phase-1 volume fraction = 0.400685  Min(alpha.water) = 0  Max(alpha.water) = 1.00001
MULES: Solving for alpha.water
Phase-1 volume fraction = 0.400685  Min(alpha.water) = 0  Max(alpha.water) = 1.00001
GAMG:  Solving for p_rgh, Initial residual = 0.000110854, Final residual = 3.43642e-07, No Iterations 1
time step continuity errors : sum local = 3.82581e-06, global = -3.18104e-21, cumulative = -1.98954e-18
GAMG:  Solving for p_rgh, Initial residual = 1.29279e-06, Final residual = 1.14642e-08, No Iterations 4
time step continuity errors : sum local = 1.27768e-07, global = 2.97898e-21, cumulative = -1.98657e-18
GAMG:  Solving for p_rgh, Initial residual = 8.41937e-07, Final residual = 6.36123e-09, No Iterations 2
time step continuity errors : sum local = 7.10008e-08, global = 3.35345e-21, cumulative = -1.98321e-18
ExecutionTime = 2.51 s  ClockTime = 3 s

Courant Number mean: 0.000569381 max: 0.112712
Interface Courant Number mean: 0 max: 0
deltaT = 0.00206565
Time = 0.00642437

PIMPLE: iteration 1
MULES: Solving for alpha.water
Phase-1 volume fraction = 0.400685  Min(alpha.water) = 0  Max(alpha.water) = 1.00003
MULES: Solving for alpha.water
Phase-1 volume fraction = 0.400685  Min(alpha.water) = 0  Max(alpha.water) = 1.00006
MULES: Solving for alpha.water
Phase-1 volume fraction = 0.400685  Min(alpha.water) = 0  Max(alpha.water) = 1.00008
GAMG:  Solving for p_rgh, Initial residual = 0.000134813, Final residual = 3.1246e-07, No Iterations 1
time step continuity errors : sum local = 4.36182e-06, global = 1.5434e-21, cumulative = -1.98167e-18
GAMG:  Solving for p_rgh, Initial residual = 9.93552e-07, Final residual = 7.1706e-09, No Iterations 3
time step continuity errors : sum local = 1.00209e-07, global = 1.57629e-20, cumulative = -1.96591e-18
GAMG:  Solving for p_rgh, Initial residual = 2.86889e-07, Final residual = 9.45542e-09, No Iterations 1
time step continuity errors : sum local = 1.3211e-07, global = 1.58613e-20, cumulative = -1.95004e-18
ExecutionTime = 3.01 s  ClockTime = 3 s

Courant Number mean: 0.000636404 max: 0.124419
Interface Courant Number mean: 0 max: 0
deltaT = 0.00247774
Time = 0.00890212

PIMPLE: iteration 1
MULES: Solving for alpha.water
Phase-1 volume fraction = 0.400685  Min(alpha.water) = 0  Max(alpha.water) = 1.00006
MULES: Solving for alpha.water
Phase-1 volume fraction = 0.400685  Min(alpha.water) = 0  Max(alpha.water) = 1.00005
MULES: Solving for alpha.water
Phase-1 volume fraction = 0.400685  Min(alpha.water) = 0  Max(alpha.water) = 1.00004
GAMG:  Solving for p_rgh, Initial residual = 0.000172573, Final residual = 3.85563e-07, No Iterations 1
time step continuity errors : sum local = 6.71655e-06, global = 1.53914e-20, cumulative = -1.93465e-18
GAMG:  Solving for p_rgh, Initial residual = 8.3613e-07, Final residual = 5.83909e-09, No Iterations 3
time step continuity errors : sum local = 1.01728e-07, global = 5.11111e-21, cumulative = -1.92954e-18
GAMG:  Solving for p_rgh, Initial residual = 1.46159e-07, Final residual = 8.28871e-09, No Iterations 1
time step continuity errors : sum local = 1.44393e-07, global = 1.44477e-20, cumulative = -1.91509e-18
ExecutionTime = 3.52 s  ClockTime = 4 s

Courant Number mean: 0.000717733 max: 0.138503
Interface Courant Number mean: 0 max: 0
deltaT = 0.00296736
Time = 0.0118695

PIMPLE: iteration 1
MULES: Solving for alpha.water
Phase-1 volume fraction = 0.400685  Min(alpha.water) = 0  Max(alpha.water) = 1.00004
MULES: Solving for alpha.water
Phase-1 volume fraction = 0.400685  Min(alpha.water) = 0  Max(alpha.water) = 1.00003
MULES: Solving for alpha.water
Phase-1 volume fraction = 0.400685  Min(alpha.water) = 0  Max(alpha.water) = 1.00003
GAMG:  Solving for p_rgh, Initial residual = 0.000218677, Final residual = 4.86846e-07, No Iterations 1
time step continuity errors : sum local = 1.05107e-05, global = -6.94923e-21, cumulative = -1.92204e-18
GAMG:  Solving for p_rgh, Initial residual = 7.89768e-07, Final residual = 9.60018e-09, No Iterations 3
time step continuity errors : sum local = 2.07295e-07, global = 1.43413e-20, cumulative = -1.9077e-18
GAMG:  Solving for p_rgh, Initial residual = 1.97403e-07, Final residual = 3.51835e-09, No Iterations 2
time step continuity errors : sum local = 7.61801e-08, global = 2.54501e-20, cumulative = -1.88225e-18
ExecutionTime = 4.04 s  ClockTime = 4 s

Courant Number mean: 0.000813093 max: 0.153715
Interface Courant Number mean: 0 max: 0
deltaT = 0.00355443
Time = 0.0154239

PIMPLE: iteration 1
MULES: Solving for alpha.water
Phase-1 volume fraction = 0.400685  Min(alpha.water) = 0  Max(alpha.water) = 1.00005
MULES: Solving for alpha.water
Phase-1 volume fraction = 0.400685  Min(alpha.water) = 0  Max(alpha.water) = 1.00008
MULES: Solving for alpha.water
Phase-1 volume fraction = 0.400685  Min(alpha.water) = 0  Max(alpha.water) = 1.0001
GAMG:  Solving for p_rgh, Initial residual = 0.000272215, Final residual = 6.00264e-07, No Iterations 1
time step continuity errors : sum local = 1.60008e-05, global = 2.5692e-20, cumulative = -1.85656e-18
GAMG:  Solving for p_rgh, Initial residual = 8.66973e-07, Final residual = 9.08672e-09, No Iterations 3
time step continuity errors : sum local = 2.42849e-07, global = -1.04562e-21, cumulative = -1.85761e-18
GAMG:  Solving for p_rgh, Initial residual = 2.3236e-07, Final residual = 3.26508e-09, No Iterations 2
time step continuity errors : sum local = 8.70872e-08, global = 1.24342e-20, cumulative = -1.84517e-18
ExecutionTime = 4.56 s  ClockTime = 5 s

Courant Number mean: 0.000923968 max: 0.170494
Interface Courant Number mean: 5.91402e-09 max: 0.00309989
deltaT = 0.00426223
Time = 0.0196861

PIMPLE: iteration 1
MULES: Solving for alpha.water
Phase-1 volume fraction = 0.400685  Min(alpha.water) = 0  Max(alpha.water) = 1.00011
MULES: Solving for alpha.water
Phase-1 volume fraction = 0.400685  Min(alpha.water) = 0  Max(alpha.water) = 1.00011
MULES: Solving for alpha.water
Phase-1 volume fraction = 0.400685  Min(alpha.water) = 0  Max(alpha.water) = 1.00012
GAMG:  Solving for p_rgh, Initial residual = 0.000324953, Final residual = 6.92107e-07, No Iterations 1
time step continuity errors : sum local = 2.2732e-05, global = -7.80286e-20, cumulative = -1.9232e-18
GAMG:  Solving for p_rgh, Initial residual = 9.79329e-07, Final residual = 7.56619e-09, No Iterations 4
time step continuity errors : sum local = 2.48489e-07, global = -1.97745e-20, cumulative = -1.94297e-18
GAMG:  Solving for p_rgh, Initial residual = 3.23815e-07, Final residual = 4.58766e-09, No Iterations 2
time step continuity errors : sum local = 1.50678e-07, global = 7.42498e-20, cumulative = -1.86872e-18
ExecutionTime = 5.11 s  ClockTime = 5 s

Courant Number mean: 0.00105279 max: 0.188747
Interface Courant Number mean: 8.45293e-09 max: 0.00298594
deltaT = 0.0051058
Time = 0.0247919

PIMPLE: iteration 1
MULES: Solving for alpha.water
Phase-1 volume fraction = 0.400685  Min(alpha.water) = 0  Max(alpha.water) = 1.00012
MULES: Solving for alpha.water
Phase-1 volume fraction = 0.400685  Min(alpha.water) = 0  Max(alpha.water) = 1.00012
MULES: Solving for alpha.water
Phase-1 volume fraction = 0.400685  Min(alpha.water) = 0  Max(alpha.water) = 1.00011
GAMG:  Solving for p_rgh, Initial residual = 0.000369711, Final residual = 7.20812e-07, No Iterations 1
time step continuity errors : sum local = 2.90643e-05, global = 1.86808e-19, cumulative = -1.68192e-18
GAMG:  Solving for p_rgh, Initial residual = 1.05748e-06, Final residual = 6.11854e-09, No Iterations 4
time step continuity errors : sum local = 2.46871e-07, global = 1.12163e-19, cumulative = -1.56975e-18
GAMG:  Solving for p_rgh, Initial residual = 3.86707e-07, Final residual = 5.57019e-09, No Iterations 2
time step continuity errors : sum local = 2.24701e-07, global = 1.12739e-19, cumulative = -1.45701e-18
ExecutionTime = 5.64 s  ClockTime = 6 s

Courant Number mean: 0.0011998 max: 0.208969
Interface Courant Number mean: 5.06174e-08 max: 0.0115582
deltaT = 0.00609505
Time = 0.030887

PIMPLE: iteration 1
MULES: Solving for alpha.water
Phase-1 volume fraction = 0.400685  Min(alpha.water) = 0  Max(alpha.water) = 1.0001
MULES: Solving for alpha.water
Phase-1 volume fraction = 0.400685  Min(alpha.water) = 0  Max(alpha.water) = 1.00009
MULES: Solving for alpha.water
Phase-1 volume fraction = 0.400685  Min(alpha.water) = 0  Max(alpha.water) = 1.00008
GAMG:  Solving for p_rgh, Initial residual = 0.000397074, Final residual = 6.46824e-07, No Iterations 1
time step continuity errors : sum local = 3.18351e-05, global = 2.04855e-19, cumulative = -1.25216e-18
GAMG:  Solving for p_rgh, Initial residual = 1.05471e-06, Final residual = 7.88258e-09, No Iterations 4
time step continuity errors : sum local = 3.88422e-07, global = 1.64118e-19, cumulative = -1.08804e-18
GAMG:  Solving for p_rgh, Initial residual = 4.78917e-07, Final residual = 6.19786e-09, No Iterations 2
time step continuity errors : sum local = 3.05314e-07, global = 3.40282e-19, cumulative = -7.4776e-19
ExecutionTime = 6.16 s  ClockTime = 6 s

Courant Number mean: 0.00136483 max: 0.231088
Interface Courant Number mean: 1.43922e-07 max: 0.0163542
deltaT = 0.00728656
Time = 0.0381736

PIMPLE: iteration 1
MULES: Solving for alpha.water
Phase-1 volume fraction = 0.400685  Min(alpha.water) = 0  Max(alpha.water) = 1.00005
MULES: Solving for alpha.water
Phase-1 volume fraction = 0.400685  Min(alpha.water) = 0  Max(alpha.water) = 1.00002
MULES: Solving for alpha.water
Phase-1 volume fraction = 0.400685  Min(alpha.water) = 0  Max(alpha.water) = 1.00002
GAMG:  Solving for p_rgh, Initial residual = 0.000479716, Final residual = 6.66154e-07, No Iterations 1
time step continuity errors : sum local = 3.99967e-05, global = 1.98383e-19, cumulative = -5.49377e-19
GAMG:  Solving for p_rgh, Initial residual = 1.19383e-06, Final residual = 8.43742e-09, No Iterations 4
time step continuity errors : sum local = 5.08136e-07, global = 3.51406e-19, cumulative = -1.97971e-19
GAMG:  Solving for p_rgh, Initial residual = 6.23206e-07, Final residual = 6.72956e-09, No Iterations 2
time step continuity errors : sum local = 4.04399e-07, global = 5.10628e-19, cumulative = 3.12657e-19
ExecutionTime = 6.7 s  ClockTime = 7 s

Courant Number mean: 0.00155892 max: 0.25554
Interface Courant Number mean: 3.11983e-07 max: 0.021829
deltaT = 0.0086651
Time = 0.0468387

PIMPLE: iteration 1
MULES: Solving for alpha.water
Phase-1 volume fraction = 0.400685  Min(alpha.water) = 0  Max(alpha.water) = 1.00003
MULES: Solving for alpha.water
Phase-1 volume fraction = 0.400685  Min(alpha.water) = 0  Max(alpha.water) = 1.00003
MULES: Solving for alpha.water
Phase-1 volume fraction = 0.400685  Min(alpha.water) = 0  Max(alpha.water) = 1.00004
GAMG:  Solving for p_rgh, Initial residual = 0.000758537, Final residual = 1.02228e-06, No Iterations 1
time step continuity errors : sum local = 7.4165e-05, global = 6.74374e-19, cumulative = 9.87032e-19
GAMG:  Solving for p_rgh, Initial residual = 1.79002e-06, Final residual = 1.38105e-08, No Iterations 4
time step continuity errors : sum local = 1.00393e-06, global = 6.8435e-19, cumulative = 1.67138e-18
GAMG:  Solving for p_rgh, Initial residual = 9.49233e-07, Final residual = 4.35331e-09, No Iterations 3
time step continuity errors : sum local = 3.16884e-07, global = 1.80951e-19, cumulative = 1.85233e-18
ExecutionTime = 7.25 s  ClockTime = 7 s

Courant Number mean: 0.0017754 max: 0.281371
Interface Courant Number mean: 5.88753e-07 max: 0.0228049
deltaT = 0.0103604
Time = 0.0571991

PIMPLE: iteration 1
MULES: Solving for alpha.water
Phase-1 volume fraction = 0.400685  Min(alpha.water) = 0  Max(alpha.water) = 1.00004
MULES: Solving for alpha.water
Phase-1 volume fraction = 0.400685  Min(alpha.water) = 0  Max(alpha.water) = 1.00008
MULES: Solving for alpha.water
Phase-1 volume fraction = 0.400685  Min(alpha.water) = 0  Max(alpha.water) = 1.00019
GAMG:  Solving for p_rgh, Initial residual = 0.00117727, Final residual = 1.61901e-06, No Iterations 1
time step continuity errors : sum local = 0.000142454, global = 4.43423e-19, cumulative = 2.29576e-18
GAMG:  Solving for p_rgh, Initial residual = 2.86269e-06, Final residual = 1.01093e-08, No Iterations 5
time step continuity errors : sum local = 8.89931e-07, global = 1.39346e-19, cumulative = 2.4351e-18
GAMG:  Solving for p_rgh, Initial residual = 1.58374e-06, Final residual = 8.16979e-09, No Iterations 3
time step continuity errors : sum local = 7.19987e-07, global = 4.39291e-19, cumulative = 2.87439e-18
ExecutionTime = 7.79 s  ClockTime = 8 s

Courant Number mean: 0.00203893 max: 0.311829
Interface Courant Number mean: 8.34488e-07 max: 0.0264022
deltaT = 0.0124053
Time = 0.0696044

PIMPLE: iteration 1
MULES: Solving for alpha.water
Phase-1 volume fraction = 0.400685  Min(alpha.water) = 0  Max(alpha.water) = 1.00005
MULES: Solving for alpha.water
Phase-1 volume fraction = 0.400685  Min(alpha.water) = 0  Max(alpha.water) = 1.00006
MULES: Solving for alpha.water
Phase-1 volume fraction = 0.400685  Min(alpha.water) = 0  Max(alpha.water) = 1.00007
GAMG:  Solving for p_rgh, Initial residual = 0.00162335, Final residual = 2.26994e-06, No Iterations 1
time step continuity errors : sum local = 0.000242211, global = -6.92004e-19, cumulative = 2.18239e-18
GAMG:  Solving for p_rgh, Initial residual = 4.22251e-06, Final residual = 3.99524e-08, No Iterations 4
time step continuity errors : sum local = 4.26646e-06, global = 1.43686e-19, cumulative = 2.32607e-18
GAMG:  Solving for p_rgh, Initial residual = 2.33926e-06, Final residual = 3.67388e-09, No Iterations 5
time step continuity errors : sum local = 3.92236e-07, global = 6.83943e-19, cumulative = 3.01002e-18
ExecutionTime = 8.37 s  ClockTime = 8 s

Courant Number mean: 0.00236584 max: 0.349662
Interface Courant Number mean: 1.3547e-06 max: 0.0329785
deltaT = 0.0147682
Time = 0.0843726

PIMPLE: iteration 1
MULES: Solving for alpha.water
Phase-1 volume fraction = 0.400685  Min(alpha.water) = 0  Max(alpha.water) = 1.00007
MULES: Solving for alpha.water
Phase-1 volume fraction = 0.400685  Min(alpha.water) = 0  Max(alpha.water) = 1.00008
MULES: Solving for alpha.water
Phase-1 volume fraction = 0.400685  Min(alpha.water) = 0  Max(alpha.water) = 1.00008
GAMG:  Solving for p_rgh, Initial residual = 0.00219326, Final residual = 3.15925e-06, No Iterations 1
time step continuity errors : sum local = 0.000405871, global = 6.63162e-19, cumulative = 3.67318e-18
GAMG:  Solving for p_rgh, Initial residual = 5.97827e-06, Final residual = 2.61897e-08, No Iterations 5
time step continuity errors : sum local = 3.37359e-06, global = -8.51309e-20, cumulative = 3.58805e-18
GAMG:  Solving for p_rgh, Initial residual = 3.53351e-06, Final residual = 8.19475e-09, No Iterations 4
time step continuity errors : sum local = 1.05723e-06, global = 3.47982e-19, cumulative = 3.93603e-18
ExecutionTime = 8.93 s  ClockTime = 9 s

Courant Number mean: 0.00274322 max: 0.38488
Interface Courant Number mean: 2.03462e-06 max: 0.041262
deltaT = 0.0176082
Time = 0.101981

PIMPLE: iteration 1
MULES: Solving for alpha.water
Phase-1 volume fraction = 0.400685  Min(alpha.water) = 0  Max(alpha.water) = 1.00011
MULES: Solving for alpha.water
Phase-1 volume fraction = 0.400685  Min(alpha.water) = 0  Max(alpha.water) = 1.00052
MULES: Solving for alpha.water
Phase-1 volume fraction = 0.400685  Min(alpha.water) = 0  Max(alpha.water) = 1.00094
GAMG:  Solving for p_rgh, Initial residual = 0.00293811, Final residual = 4.99611e-06, No Iterations 1
time step continuity errors : sum local = 0.000773518, global = -2.30455e-19, cumulative = 3.70558e-18
GAMG:  Solving for p_rgh, Initial residual = 8.7632e-06, Final residual = 6.14313e-08, No Iterations 5
time step continuity errors : sum local = 9.56337e-06, global = 7.52362e-19, cumulative = 4.45794e-18
GAMG:  Solving for p_rgh, Initial residual = 4.803e-06, Final residual = 7.5852e-09, No Iterations 6
time step continuity errors : sum local = 1.17469e-06, global = 1.51045e-18, cumulative = 5.96839e-18
ExecutionTime = 9.5 s  ClockTime = 10 s

Courant Number mean: 0.00322158 max: 0.42496
Interface Courant Number mean: 3.03869e-06 max: 0.0520705
deltaT = 0.0208842
Time = 0.122865

PIMPLE: iteration 1
MULES: Solving for alpha.water
Phase-1 volume fraction = 0.400685  Min(alpha.water) = 0  Max(alpha.water) = 1.0009
MULES: Solving for alpha.water
Phase-1 volume fraction = 0.400685  Min(alpha.water) = 0  Max(alpha.water) = 1.00087
MULES: Solving for alpha.water
Phase-1 volume fraction = 0.400685  Min(alpha.water) = 0  Max(alpha.water) = 1.00083
GAMG:  Solving for p_rgh, Initial residual = 0.00349897, Final residual = 6.06157e-06, No Iterations 1
time step continuity errors : sum local = 0.00112481, global = 3.78285e-18, cumulative = 9.75124e-18
GAMG:  Solving for p_rgh, Initial residual = 1.07476e-05, Final residual = 8.99985e-08, No Iterations 5
time step continuity errors : sum local = 1.6735e-05, global = 1.31373e-18, cumulative = 1.1065e-17
GAMG:  Solving for p_rgh, Initial residual = 6.25354e-06, Final residual = 4.85109e-09, No Iterations 6
time step continuity errors : sum local = 9.01908e-07, global = -5.04481e-19, cumulative = 1.05605e-17
ExecutionTime = 10.1 s  ClockTime = 10 s

Courant Number mean: 0.00377183 max: 0.459796
Interface Courant Number mean: 4.30547e-06 max: 0.0628568
deltaT = 0.0243649
Time = 0.14723

PIMPLE: iteration 1
MULES: Solving for alpha.water
Phase-1 volume fraction = 0.400685  Min(alpha.water) = 0  Max(alpha.water) = 1.00096
MULES: Solving for alpha.water
Phase-1 volume fraction = 0.400685  Min(alpha.water) = 0  Max(alpha.water) = 1.00109
MULES: Solving for alpha.water
Phase-1 volume fraction = 0.400685  Min(alpha.water) = 0  Max(alpha.water) = 1.00123
GAMG:  Solving for p_rgh, Initial residual = 0.00431767, Final residual = 7.39161e-06, No Iterations 1
time step continuity errors : sum local = 0.00161423, global = 1.35518e-18, cumulative = 1.19157e-17
GAMG:  Solving for p_rgh, Initial residual = 1.31431e-05, Final residual = 1.2457e-07, No Iterations 5
time step continuity errors : sum local = 2.72735e-05, global = -3.99594e-19, cumulative = 1.15161e-17
GAMG:  Solving for p_rgh, Initial residual = 7.69999e-06, Final residual = 5.63214e-09, No Iterations 6
time step continuity errors : sum local = 1.23139e-06, global = 2.93919e-19, cumulative = 1.181e-17
ExecutionTime = 10.69 s  ClockTime = 11 s

Courant Number mean: 0.00435384 max: 0.48565
Interface Courant Number mean: 5.88059e-06 max: 0.0774497
deltaT = 0.0284257
Time = 0.175655

PIMPLE: iteration 1
MULES: Solving for alpha.water
Phase-1 volume fraction = 0.400685  Min(alpha.water) = 0  Max(alpha.water) = 1.00113
MULES: Solving for alpha.water
Phase-1 volume fraction = 0.400685  Min(alpha.water) = 0  Max(alpha.water) = 1.00104
MULES: Solving for alpha.water
Phase-1 volume fraction = 0.400685  Min(alpha.water) = 0  Max(alpha.water) = 1.00095
GAMG:  Solving for p_rgh, Initial residual = 0.00573734, Final residual = 1.0318e-05, No Iterations 1
time step continuity errors : sum local = 0.00264769, global = 2.97949e-18, cumulative = 1.47895e-17
GAMG:  Solving for p_rgh, Initial residual = 1.80534e-05, Final residual = 1.1724e-07, No Iterations 5
time step continuity errors : sum local = 3.02643e-05, global = 1.70691e-19, cumulative = 1.49602e-17
GAMG:  Solving for p_rgh, Initial residual = 1.02861e-05, Final residual = 8.54955e-09, No Iterations 8
time step continuity errors : sum local = 2.20788e-06, global = -6.3567e-19, cumulative = 1.43245e-17
ExecutionTime = 11.29 s  ClockTime = 11 s

Courant Number mean: 0.00521161 max: 0.760816
Interface Courant Number mean: 7.76907e-06 max: 0.0927529
deltaT = 0.0317056
Time = 0.207361

PIMPLE: iteration 1
MULES: Solving for alpha.water
Phase-1 volume fraction = 0.400685  Min(alpha.water) = 0  Max(alpha.water) = 1.00033
MULES: Solving for alpha.water
Phase-1 volume fraction = 0.400685  Min(alpha.water) = 0  Max(alpha.water) = 1.00033
MULES: Solving for alpha.water
Phase-1 volume fraction = 0.400685  Min(alpha.water) = 0  Max(alpha.water) = 1.00034
GAMG:  Solving for p_rgh, Initial residual = 0.00788891, Final residual = 1.47447e-05, No Iterations 1
time step continuity errors : sum local = 0.00422396, global = 3.74093e-19, cumulative = 1.46986e-17
GAMG:  Solving for p_rgh, Initial residual = 2.56446e-05, Final residual = 8.08455e-08, No Iterations 6
time step continuity errors : sum local = 2.32335e-05, global = -7.71286e-19, cumulative = 1.39273e-17
GAMG:  Solving for p_rgh, Initial residual = 1.51157e-05, Final residual = 7.24001e-09, No Iterations 7
time step continuity errors : sum local = 2.08123e-06, global = 1.62852e-19, cumulative = 1.40902e-17
ExecutionTime = 11.92 s  ClockTime = 12 s

Courant Number mean: 0.00613752 max: 1.07672
Interface Courant Number mean: 1.04061e-05 max: 0.228084
deltaT = 0.0264213
Time = 0.233782

PIMPLE: iteration 1
MULES: Solving for alpha.water
Phase-1 volume fraction = 0.400685  Min(alpha.water) = 0  Max(alpha.water) = 1.00036
MULES: Solving for alpha.water
Phase-1 volume fraction = 0.400685  Min(alpha.water) = 0  Max(alpha.water) = 1.00037
MULES: Solving for alpha.water
Phase-1 volume fraction = 0.400685  Min(alpha.water) = 0  Max(alpha.water) = 1.00039
GAMG:  Solving for p_rgh, Initial residual = 0.0127982, Final residual = 2.77657e-05, No Iterations 1
time step continuity errors : sum local = 0.0063546, global = -5.4864e-19, cumulative = 1.35415e-17
GAMG:  Solving for p_rgh, Initial residual = 4.39591e-05, Final residual = 3.43909e-07, No Iterations 4
time step continuity errors : sum local = 7.90061e-05, global = -1.10589e-18, cumulative = 1.24356e-17
GAMG:  Solving for p_rgh, Initial residual = 2.20133e-05, Final residual = 6.04831e-09, No Iterations 11
time step continuity errors : sum local = 1.39124e-06, global = -1.13196e-18, cumulative = 1.13037e-17
ExecutionTime = 12.54 s  ClockTime = 13 s

Courant Number mean: 0.0059691 max: 1.02336
Interface Courant Number mean: 1.31788e-05 max: 0.293426
deltaT = 0.0232187
Time = 0.257001

PIMPLE: iteration 1
MULES: Solving for alpha.water
Phase-1 volume fraction = 0.400685  Min(alpha.water) = 0  Max(alpha.water) = 1.00039
MULES: Solving for alpha.water
Phase-1 volume fraction = 0.400685  Min(alpha.water) = 0  Max(alpha.water) = 1.00038
MULES: Solving for alpha.water
Phase-1 volume fraction = 0.400685  Min(alpha.water) = 0  Max(alpha.water) = 1.00038
GAMG:  Solving for p_rgh, Initial residual = 0.02263, Final residual = 4.13736e-05, No Iterations 1
time step continuity errors : sum local = 0.00781414, global = 2.59486e-19, cumulative = 1.15632e-17
GAMG:  Solving for p_rgh, Initial residual = 6.9668e-05, Final residual = 4.92637e-07, No Iterations 4
time step continuity errors : sum local = 9.29754e-05, global = -3.32415e-19, cumulative = 1.12307e-17
GAMG:  Solving for p_rgh, Initial residual = 3.96532e-05, Final residual = 3.62008e-09, No Iterations 10
time step continuity errors : sum local = 6.8324e-07, global = 3.1521e-19, cumulative = 1.1546e-17
ExecutionTime = 13.18 s  ClockTime = 13 s

Courant Number mean: 0.00587748 max: 0.839935
Interface Courant Number mean: 4.22022e-05 max: 0.431835
deltaT = 0.0247666
Time = 0.281768

PIMPLE: iteration 1
MULES: Solving for alpha.water
Phase-1 volume fraction = 0.400685  Min(alpha.water) = 0  Max(alpha.water) = 1.00038
MULES: Solving for alpha.water
Phase-1 volume fraction = 0.400685  Min(alpha.water) = 0  Max(alpha.water) = 1.00037
MULES: Solving for alpha.water
Phase-1 volume fraction = 0.400685  Min(alpha.water) = 0  Max(alpha.water) = 1.00037
GAMG:  Solving for p_rgh, Initial residual = 0.0350013, Final residual = 7.72624e-05, No Iterations 1
time step continuity errors : sum local = 0.0148554, global = 5.62692e-19, cumulative = 1.21086e-17
GAMG:  Solving for p_rgh, Initial residual = 0.000121176, Final residual = 6.34918e-07, No Iterations 4
time step continuity errors : sum local = 0.000122285, global = 2.81276e-18, cumulative = 1.49214e-17
GAMG:  Solving for p_rgh, Initial residual = 6.04668e-05, Final residual = 3.83044e-09, No Iterations 10
time step continuity errors : sum local = 7.36256e-07, global = -2.27712e-18, cumulative = 1.26443e-17
ExecutionTime = 13.8 s  ClockTime = 14 s

Courant Number mean: 0.00855113 max: 1.05614
Interface Courant Number mean: 8.46176e-05 max: 0.496959
deltaT = 0.0205209
Time = 0.302289

PIMPLE: iteration 1
MULES: Solving for alpha.water
Phase-1 volume fraction = 0.400685  Min(alpha.water) = 0  Max(alpha.water) = 1.00037
MULES: Solving for alpha.water
Phase-1 volume fraction = 0.400685  Min(alpha.water) = 0  Max(alpha.water) = 1.00036
MULES: Solving for alpha.water
Phase-1 volume fraction = 0.400685  Min(alpha.water) = 0  Max(alpha.water) = 1.00036
GAMG:  Solving for p_rgh, Initial residual = 0.0437057, Final residual = 8.03922e-05, No Iterations 1
time step continuity errors : sum local = 0.0115726, global = 1.46438e-18, cumulative = 1.41087e-17
GAMG:  Solving for p_rgh, Initial residual = 0.000135737, Final residual = 7.81206e-07, No Iterations 4
time step continuity errors : sum local = 0.000112352, global = -1.13142e-18, cumulative = 1.29772e-17
GAMG:  Solving for p_rgh, Initial residual = 7.73157e-05, Final residual = 9.87462e-09, No Iterations 15
time step continuity errors : sum local = 1.42524e-06, global = -1.06665e-18, cumulative = 1.19106e-17
ExecutionTime = 14.46 s  ClockTime = 14 s

Courant Number mean: 0.00700939 max: 0.850794
Interface Courant Number mean: 9.98582e-05 max: 0.315551
deltaT = 0.0211428
Time = 0.323431

PIMPLE: iteration 1
MULES: Solving for alpha.water
Phase-1 volume fraction = 0.400685  Min(alpha.water) = 0  Max(alpha.water) = 1.00036
MULES: Solving for alpha.water
Phase-1 volume fraction = 0.400685  Min(alpha.water) = 0  Max(alpha.water) = 1.00035
MULES: Solving for alpha.water
Phase-1 volume fraction = 0.400685  Min(alpha.water) = 0  Max(alpha.water) = 1.00035
GAMG:  Solving for p_rgh, Initial residual = 0.0425208, Final residual = 8.8957e-05, No Iterations 1
time step continuity errors : sum local = 0.0127022, global = 3.21038e-19, cumulative = 1.22316e-17
GAMG:  Solving for p_rgh, Initial residual = 0.000141316, Final residual = 6.17397e-07, No Iterations 4
time step continuity errors : sum local = 8.80223e-05, global = 1.27876e-19, cumulative = 1.23595e-17
GAMG:  Solving for p_rgh, Initial residual = 7.16566e-05, Final residual = 6.56435e-09, No Iterations 10
time step continuity errors : sum local = 9.35891e-07, global = -1.69199e-18, cumulative = 1.06675e-17
ExecutionTime = 15.08 s  ClockTime = 15 s

Courant Number mean: 0.00816117 max: 0.883645
Interface Courant Number mean: 8.53807e-05 max: 0.168596
deltaT = 0.0211428
Time = 0.344574

PIMPLE: iteration 1
MULES: Solving for alpha.water
Phase-1 volume fraction = 0.400685  Min(alpha.water) = 0  Max(alpha.water) = 1.00035
MULES: Solving for alpha.water
Phase-1 volume fraction = 0.400685  Min(alpha.water) = 0  Max(alpha.water) = 1.00034
MULES: Solving for alpha.water
Phase-1 volume fraction = 0.400685  Min(alpha.water) = 0  Max(alpha.water) = 1.00034
GAMG:  Solving for p_rgh, Initial residual = 0.026551, Final residual = 4.94378e-05, No Iterations 1
time step continuity errors : sum local = 0.00693154, global = -2.06638e-18, cumulative = 8.60114e-18
GAMG:  Solving for p_rgh, Initial residual = 8.22366e-05, Final residual = 5.98707e-07, No Iterations 4
time step continuity errors : sum local = 8.40282e-05, global = -1.9859e-18, cumulative = 6.61524e-18
GAMG:  Solving for p_rgh, Initial residual = 4.64191e-05, Final residual = 6.2435e-09, No Iterations 11
time step continuity errors : sum local = 8.76535e-07, global = -1.03305e-19, cumulative = 6.51194e-18
ExecutionTime = 15.7 s  ClockTime = 16 s

Courant Number mean: 0.00755389 max: 0.861057
Interface Courant Number mean: 7.97778e-05 max: 0.0962114
deltaT = 0.0218475
Time = 0.366422

PIMPLE: iteration 1
MULES: Solving for alpha.water
Phase-1 volume fraction = 0.400685  Min(alpha.water) = 0  Max(alpha.water) = 1.00034
MULES: Solving for alpha.water
Phase-1 volume fraction = 0.400685  Min(alpha.water) = 0  Max(alpha.water) = 1.00033
MULES: Solving for alpha.water
Phase-1 volume fraction = 0.400685  Min(alpha.water) = 0  Max(alpha.water) = 1.00033
GAMG:  Solving for p_rgh, Initial residual = 0.0157292, Final residual = 3.35197e-05, No Iterations 1
time step continuity errors : sum local = 0.00485481, global = 1.40741e-18, cumulative = 7.91935e-18
GAMG:  Solving for p_rgh, Initial residual = 5.40527e-05, Final residual = 4.97742e-07, No Iterations 4
time step continuity errors : sum local = 7.21334e-05, global = -1.335e-18, cumulative = 6.58435e-18
GAMG:  Solving for p_rgh, Initial residual = 2.87165e-05, Final residual = 9.07196e-09, No Iterations 8
time step continuity errors : sum local = 1.32149e-06, global = -6.9039e-19, cumulative = 5.89396e-18
ExecutionTime = 16.29 s  ClockTime = 16 s

Courant Number mean: 0.00784222 max: 0.946623
Interface Courant Number mean: 8.40796e-05 max: 0.11161
deltaT = 0.020438
Time = 0.38686

PIMPLE: iteration 1
MULES: Solving for alpha.water
Phase-1 volume fraction = 0.400685  Min(alpha.water) = 0  Max(alpha.water) = 1.00033
MULES: Solving for alpha.water
Phase-1 volume fraction = 0.400685  Min(alpha.water) = 0  Max(alpha.water) = 1.00089
MULES: Solving for alpha.water
Phase-1 volume fraction = 0.400685  Min(alpha.water) = 0  Max(alpha.water) = 1.00148
GAMG:  Solving for p_rgh, Initial residual = 0.0102352, Final residual = 1.8712e-05, No Iterations 1
time step continuity errors : sum local = 0.00246626, global = -7.28943e-19, cumulative = 5.16502e-18
GAMG:  Solving for p_rgh, Initial residual = 3.20036e-05, Final residual = 2.04559e-07, No Iterations 4
time step continuity errors : sum local = 2.69823e-05, global = 8.85486e-20, cumulative = 5.25357e-18
GAMG:  Solving for p_rgh, Initial residual = 1.81694e-05, Final residual = 5.30245e-09, No Iterations 8
time step continuity errors : sum local = 6.99236e-07, global = -2.20259e-19, cumulative = 5.03331e-18
ExecutionTime = 16.9 s  ClockTime = 17 s

Courant Number mean: 0.00699364 max: 0.939466
Interface Courant Number mean: 7.93181e-05 max: 0.100439
deltaT = 0.0191606
Time = 0.40602

PIMPLE: iteration 1
MULES: Solving for alpha.water
Phase-1 volume fraction = 0.400685  Min(alpha.water) = 0  Max(alpha.water) = 1.00146
MULES: Solving for alpha.water
Phase-1 volume fraction = 0.400685  Min(alpha.water) = 0  Max(alpha.water) = 1.00143
MULES: Solving for alpha.water
Phase-1 volume fraction = 0.400685  Min(alpha.water) = 0  Max(alpha.water) = 1.00141
GAMG:  Solving for p_rgh, Initial residual = 0.00734993, Final residual = 1.25118e-05, No Iterations 1
time step continuity errors : sum local = 0.00150368, global = -2.25601e-18, cumulative = 2.7773e-18
GAMG:  Solving for p_rgh, Initial residual = 2.1708e-05, Final residual = 1.56487e-07, No Iterations 5
time step continuity errors : sum local = 1.88476e-05, global = -3.64964e-19, cumulative = 2.41234e-18
GAMG:  Solving for p_rgh, Initial residual = 1.24306e-05, Final residual = 7.39347e-09, No Iterations 6
time step continuity errors : sum local = 8.89675e-07, global = -6.37903e-19, cumulative = 1.77443e-18
ExecutionTime = 17.48 s  ClockTime = 17 s

Courant Number mean: 0.00638935 max: 0.917459
Interface Courant Number mean: 7.68699e-05 max: 0.0879659
deltaT = 0.0185619
Time = 0.424582

PIMPLE: iteration 1
MULES: Solving for alpha.water
Phase-1 volume fraction = 0.400685  Min(alpha.water) = 0  Max(alpha.water) = 1.00132
MULES: Solving for alpha.water
Phase-1 volume fraction = 0.400685  Min(alpha.water) = 0  Max(alpha.water) = 1.00124
MULES: Solving for alpha.water
Phase-1 volume fraction = 0.400685  Min(alpha.water) = 0  Max(alpha.water) = 1.00115
GAMG:  Solving for p_rgh, Initial residual = 0.00714595, Final residual = 1.20537e-05, No Iterations 1
time step continuity errors : sum local = 0.00137783, global = -6.16149e-19, cumulative = 1.15828e-18
GAMG:  Solving for p_rgh, Initial residual = 2.06542e-05, Final residual = 1.53396e-07, No Iterations 5
time step continuity errors : sum local = 1.75451e-05, global = -4.37184e-19, cumulative = 7.211e-19
GAMG:  Solving for p_rgh, Initial residual = 1.16082e-05, Final residual = 6.43345e-09, No Iterations 6
time step continuity errors : sum local = 7.36004e-07, global = 1.06383e-19, cumulative = 8.27484e-19
ExecutionTime = 18.08 s  ClockTime = 18 s

Courant Number mean: 0.00603993 max: 0.913142
Interface Courant Number mean: 7.5325e-05 max: 0.0800609
deltaT = 0.0179818
Time = 0.442564

PIMPLE: iteration 1
MULES: Solving for alpha.water
Phase-1 volume fraction = 0.400685  Min(alpha.water) = 0  Max(alpha.water) = 1.00109
MULES: Solving for alpha.water
Phase-1 volume fraction = 0.400685  Min(alpha.water) = 0  Max(alpha.water) = 1.00103
MULES: Solving for alpha.water
Phase-1 volume fraction = 0.400685  Min(alpha.water) = 0  Max(alpha.water) = 1.00097
GAMG:  Solving for p_rgh, Initial residual = 0.00702735, Final residual = 1.13169e-05, No Iterations 1
time step continuity errors : sum local = 0.00123033, global = -7.38636e-19, cumulative = 8.88477e-20
GAMG:  Solving for p_rgh, Initial residual = 1.99973e-05, Final residual = 1.71207e-07, No Iterations 4
time step continuity errors : sum local = 1.86305e-05, global = -9.39532e-20, cumulative = -5.10549e-21
GAMG:  Solving for p_rgh, Initial residual = 1.1475e-05, Final residual = 8.61091e-09, No Iterations 6
time step continuity errors : sum local = 9.35968e-07, global = 1.20791e-18, cumulative = 1.2028e-18
ExecutionTime = 18.66 s  ClockTime = 19 s

Courant Number mean: 0.00570323 max: 0.903444
Interface Courant Number mean: 7.27667e-05 max: 0.0718032
deltaT = 0.0174199
Time = 0.459984

PIMPLE: iteration 1
MULES: Solving for alpha.water
Phase-1 volume fraction = 0.400685  Min(alpha.water) = 0  Max(alpha.water) = 1.00096
MULES: Solving for alpha.water
Phase-1 volume fraction = 0.400685  Min(alpha.water) = 0  Max(alpha.water) = 1.00095
MULES: Solving for alpha.water
Phase-1 volume fraction = 0.400685  Min(alpha.water) = 0  Max(alpha.water) = 1.00094
GAMG:  Solving for p_rgh, Initial residual = 0.00666091, Final residual = 1.02611e-05, No Iterations 1
time step continuity errors : sum local = 0.00106154, global = 5.51963e-19, cumulative = 1.75477e-18
GAMG:  Solving for p_rgh, Initial residual = 1.7998e-05, Final residual = 1.34569e-07, No Iterations 5
time step continuity errors : sum local = 1.39379e-05, global = 5.00764e-19, cumulative = 2.25553e-18
GAMG:  Solving for p_rgh, Initial residual = 1.0215e-05, Final residual = 5.13467e-09, No Iterations 6
time step continuity errors : sum local = 5.31151e-07, global = 1.01204e-18, cumulative = 3.26757e-18
ExecutionTime = 19.23 s  ClockTime = 19 s

Courant Number mean: 0.00542468 max: 0.882458
Interface Courant Number mean: 7.07514e-05 max: 0.0642584
deltaT = 0.0174199
Time = 0.477404

PIMPLE: iteration 1
MULES: Solving for alpha.water
Phase-1 volume fraction = 0.400685  Min(alpha.water) = 0  Max(alpha.water) = 1.00094
MULES: Solving for alpha.water
Phase-1 volume fraction = 0.400685  Min(alpha.water) = 0  Max(alpha.water) = 1.00094
MULES: Solving for alpha.water
Phase-1 volume fraction = 0.400685  Min(alpha.water) = 0  Max(alpha.water) = 1.00095
GAMG:  Solving for p_rgh, Initial residual = 0.00698288, Final residual = 1.04031e-05, No Iterations 1
time step continuity errors : sum local = 0.00106902, global = 1.51879e-18, cumulative = 4.78636e-18
GAMG:  Solving for p_rgh, Initial residual = 1.80061e-05, Final residual = 1.33819e-07, No Iterations 5
time step continuity errors : sum local = 1.37586e-05, global = 6.25755e-19, cumulative = 5.41211e-18
GAMG:  Solving for p_rgh, Initial residual = 1.00865e-05, Final residual = 7.02377e-09, No Iterations 6
time step continuity errors : sum local = 7.21992e-07, global = -1.30207e-19, cumulative = 5.28191e-18
ExecutionTime = 19.83 s  ClockTime = 20 s

Courant Number mean: 0.00533716 max: 0.893995
Interface Courant Number mean: 7.06677e-05 max: 0.0603867
deltaT = 0.0174199
Time = 0.494824

PIMPLE: iteration 1
MULES: Solving for alpha.water
Phase-1 volume fraction = 0.400685  Min(alpha.water) = 0  Max(alpha.water) = 1.00096
MULES: Solving for alpha.water
Phase-1 volume fraction = 0.400685  Min(alpha.water) = 0  Max(alpha.water) = 1.00096
MULES: Solving for alpha.water
Phase-1 volume fraction = 0.400685  Min(alpha.water) = 0  Max(alpha.water) = 1.00097
GAMG:  Solving for p_rgh, Initial residual = 0.00714606, Final residual = 1.05874e-05, No Iterations 1
time step continuity errors : sum local = 0.00108268, global = -6.4517e-19, cumulative = 4.63674e-18
GAMG:  Solving for p_rgh, Initial residual = 1.81364e-05, Final residual = 1.32914e-07, No Iterations 5
time step continuity errors : sum local = 1.36115e-05, global = 6.03548e-19, cumulative = 5.24028e-18
GAMG:  Solving for p_rgh, Initial residual = 1.00686e-05, Final residual = 4.81874e-09, No Iterations 6
time step continuity errors : sum local = 4.93471e-07, global = -9.26108e-19, cumulative = 4.31418e-18
ExecutionTime = 20.42 s  ClockTime = 20 s

Courant Number mean: 0.00527155 max: 0.891343
Interface Courant Number mean: 6.98416e-05 max: 0.0593055
deltaT = 0.0174199
Time = 0.512243

PIMPLE: iteration 1
MULES: Solving for alpha.water
Phase-1 volume fraction = 0.400685  Min(alpha.water) = 0  Max(alpha.water) = 1.00102
MULES: Solving for alpha.water
Phase-1 volume fraction = 0.400685  Min(alpha.water) = 0  Max(alpha.water) = 1.00106
MULES: Solving for alpha.water
Phase-1 volume fraction = 0.400685  Min(alpha.water) = 0  Max(alpha.water) = 1.00111
GAMG:  Solving for p_rgh, Initial residual = 0.00739026, Final residual = 1.04598e-05, No Iterations 1
time step continuity errors : sum local = 0.00106519, global = -9.34969e-19, cumulative = 3.37921e-18
GAMG:  Solving for p_rgh, Initial residual = 1.80582e-05, Final residual = 6.51757e-08, No Iterations 5
time step continuity errors : sum local = 6.65036e-06, global = -4.93836e-19, cumulative = 2.88537e-18
GAMG:  Solving for p_rgh, Initial residual = 1.00419e-05, Final residual = 6.65597e-09, No Iterations 7
time step continuity errors : sum local = 6.7904e-07, global = -1.50847e-18, cumulative = 1.3769e-18
ExecutionTime = 21.01 s  ClockTime = 21 s

Courant Number mean: 0.00522045 max: 0.877817
Interface Courant Number mean: 6.92856e-05 max: 0.062411
deltaT = 0.0174199
Time = 0.529663

PIMPLE: iteration 1
MULES: Solving for alpha.water
Phase-1 volume fraction = 0.400685  Min(alpha.water) = 0  Max(alpha.water) = 1.00119
MULES: Solving for alpha.water
Phase-1 volume fraction = 0.400685  Min(alpha.water) = 0  Max(alpha.water) = 1.00127
MULES: Solving for alpha.water
Phase-1 volume fraction = 0.400685  Min(alpha.water) = 0  Max(alpha.water) = 1.00135
GAMG:  Solving for p_rgh, Initial residual = 0.00745761, Final residual = 1.0093e-05, No Iterations 1
time step continuity errors : sum local = 0.0010242, global = -3.87509e-19, cumulative = 9.89389e-19
GAMG:  Solving for p_rgh, Initial residual = 1.75036e-05, Final residual = 6.1335e-08, No Iterations 5
time step continuity errors : sum local = 6.23488e-06, global = -1.38426e-18, cumulative = -3.94868e-19
GAMG:  Solving for p_rgh, Initial residual = 9.75629e-06, Final residual = 5.59082e-09, No Iterations 7
time step continuity errors : sum local = 5.68398e-07, global = -1.39299e-18, cumulative = -1.78786e-18
ExecutionTime = 21.61 s  ClockTime = 22 s

Courant Number mean: 0.00518138 max: 0.857976
Interface Courant Number mean: 6.86555e-05 max: 0.0659019
deltaT = 0.0180899
Time = 0.547753

PIMPLE: iteration 1
MULES: Solving for alpha.water
Phase-1 volume fraction = 0.400685  Min(alpha.water) = 1.51283e-320  Max(alpha.water) = 1.00142
MULES: Solving for alpha.water
Phase-1 volume fraction = 0.400685  Min(alpha.water) = 2.01115e-313  Max(alpha.water) = 1.00149
MULES: Solving for alpha.water
Phase-1 volume fraction = 0.400685  Min(alpha.water) = 3.44786e-310  Max(alpha.water) = 1.00155
GAMG:  Solving for p_rgh, Initial residual = 0.00789792, Final residual = 1.05989e-05, No Iterations 1
time step continuity errors : sum local = 0.00112745, global = -8.28657e-19, cumulative = -2.61652e-18
GAMG:  Solving for p_rgh, Initial residual = 1.88467e-05, Final residual = 6.60336e-08, No Iterations 5
time step continuity errors : sum local = 7.04131e-06, global = -1.81788e-18, cumulative = -4.4344e-18
GAMG:  Solving for p_rgh, Initial residual = 1.0783e-05, Final residual = 4.81984e-09, No Iterations 7
time step continuity errors : sum local = 5.13494e-07, global = -1.82386e-18, cumulative = -6.25826e-18
ExecutionTime = 22.2 s  ClockTime = 22 s

Courant Number mean: 0.00535546 max: 0.855762
Interface Courant Number mean: 7.09726e-05 max: 0.0706311
deltaT = 0.0188436
Time = 0.566597

PIMPLE: iteration 1
MULES: Solving for alpha.water
Phase-1 volume fraction = 0.400685  Min(alpha.water) = 2.85412e-307  Max(alpha.water) = 1.0016
MULES: Solving for alpha.water
Phase-1 volume fraction = 0.400685  Min(alpha.water) = 1.60594e-304  Max(alpha.water) = 1.00165
MULES: Solving for alpha.water
Phase-1 volume fraction = 0.400685  Min(alpha.water) = 7.48111e-302  Max(alpha.water) = 1.00169
GAMG:  Solving for p_rgh, Initial residual = 0.00852956, Final residual = 1.1643e-05, No Iterations 1
time step continuity errors : sum local = 0.00130333, global = -3.7801e-18, cumulative = -1.00384e-17
GAMG:  Solving for p_rgh, Initial residual = 2.10343e-05, Final residual = 7.67198e-08, No Iterations 5
time step continuity errors : sum local = 8.61832e-06, global = -3.82706e-19, cumulative = -1.04211e-17
GAMG:  Solving for p_rgh, Initial residual = 1.23102e-05, Final residual = 8.04234e-09, No Iterations 6
time step continuity errors : sum local = 9.00657e-07, global = -2.30157e-18, cumulative = -1.27226e-17
ExecutionTime = 22.81 s  ClockTime = 23 s

Courant Number mean: 0.00555701 max: 0.825986
Interface Courant Number mean: 7.35096e-05 max: 0.0734433
deltaT = 0.0197001
Time = 0.586297

PIMPLE: iteration 1
MULES: Solving for alpha.water
Phase-1 volume fraction = 0.400685  Min(alpha.water) = 2.37721e-299  Max(alpha.water) = 1.00169
MULES: Solving for alpha.water
Phase-1 volume fraction = 0.400685  Min(alpha.water) = 5.70163e-297  Max(alpha.water) = 1.00168
MULES: Solving for alpha.water
Phase-1 volume fraction = 0.400685  Min(alpha.water) = 1.17003e-294  Max(alpha.water) = 1.00167
GAMG:  Solving for p_rgh, Initial residual = 0.00913014, Final residual = 1.26691e-05, No Iterations 1
time step continuity errors : sum local = 0.00149877, global = -3.27246e-18, cumulative = -1.59951e-17
GAMG:  Solving for p_rgh, Initial residual = 2.31965e-05, Final residual = 1.12885e-07, No Iterations 5
time step continuity errors : sum local = 1.3363e-05, global = -2.07868e-18, cumulative = -1.80738e-17
GAMG:  Solving for p_rgh, Initial residual = 1.39601e-05, Final residual = 4.466e-09, No Iterations 7
time step continuity errors : sum local = 5.29248e-07, global = -1.78624e-18, cumulative = -1.986e-17
ExecutionTime = 23.41 s  ClockTime = 23 s

Courant Number mean: 0.00578609 max: 0.7847
Interface Courant Number mean: 7.62219e-05 max: 0.0802444
deltaT = 0.0217738
Time = 0.608071

PIMPLE: iteration 1
MULES: Solving for alpha.water
Phase-1 volume fraction = 0.400685  Min(alpha.water) = 2.46971e-292  Max(alpha.water) = 1.00174
MULES: Solving for alpha.water
Phase-1 volume fraction = 0.400685  Min(alpha.water) = 6.66741e-284  Max(alpha.water) = 1.00181
MULES: Solving for alpha.water
Phase-1 volume fraction = 0.400685  Min(alpha.water) = 4.73662e-276  Max(alpha.water) = 1.00188
GAMG:  Solving for p_rgh, Initial residual = 0.0101343, Final residual = 1.43653e-05, No Iterations 1
time step continuity errors : sum local = 0.00193154, global = -2.67164e-18, cumulative = -2.25316e-17
GAMG:  Solving for p_rgh, Initial residual = 2.6449e-05, Final residual = 1.35986e-07, No Iterations 5
time step continuity errors : sum local = 1.83251e-05, global = -2.44579e-18, cumulative = -2.49774e-17
GAMG:  Solving for p_rgh, Initial residual = 1.61368e-05, Final residual = 9.27907e-09, No Iterations 6
time step continuity errors : sum local = 1.24838e-06, global = -1.83229e-18, cumulative = -2.68097e-17
ExecutionTime = 23.99 s  ClockTime = 24 s

Courant Number mean: 0.00639427 max: 0.806284
Interface Courant Number mean: 8.39086e-05 max: 0.0961832
deltaT = 0.0230547
Time = 0.631125

PIMPLE: iteration 1
MULES: Solving for alpha.water
Phase-1 volume fraction = 0.400685  Min(alpha.water) = 3.25487e-271  Max(alpha.water) = 1.0019
MULES: Solving for alpha.water
Phase-1 volume fraction = 0.400685  Min(alpha.water) = 2.79294e-266  Max(alpha.water) = 1.00192
MULES: Solving for alpha.water
Phase-1 volume fraction = 0.400685  Min(alpha.water) = 4.50429e-261  Max(alpha.water) = 1.00194
GAMG:  Solving for p_rgh, Initial residual = 0.0109019, Final residual = 1.59303e-05, No Iterations 1
time step continuity errors : sum local = 0.00230223, global = -2.00832e-18, cumulative = -2.8818e-17
GAMG:  Solving for p_rgh, Initial residual = 2.94784e-05, Final residual = 1.69269e-07, No Iterations 5
time step continuity errors : sum local = 2.45195e-05, global = -4.04909e-19, cumulative = -2.9223e-17
GAMG:  Solving for p_rgh, Initial residual = 1.81293e-05, Final residual = 4.88809e-09, No Iterations 8
time step continuity errors : sum local = 7.08649e-07, global = -1.73474e-18, cumulative = -3.09577e-17
ExecutionTime = 24.6 s  ClockTime = 25 s

Courant Number mean: 0.00674096 max: 0.806802
Interface Courant Number mean: 8.68962e-05 max: 0.108741
deltaT = 0.0245916
Time = 0.655717

PIMPLE: iteration 1
MULES: Solving for alpha.water
Phase-1 volume fraction = 0.400685  Min(alpha.water) = 1.7449e-247  Max(alpha.water) = 1.00205
MULES: Solving for alpha.water
Phase-1 volume fraction = 0.400685  Min(alpha.water) = 2.55162e-243  Max(alpha.water) = 1.00216
MULES: Solving for alpha.water
Phase-1 volume fraction = 0.400685  Min(alpha.water) = 4.24568e-240  Max(alpha.water) = 1.00227
GAMG:  Solving for p_rgh, Initial residual = 0.0114312, Final residual = 1.83373e-05, No Iterations 1
time step continuity errors : sum local = 0.00288275, global = -1.41908e-18, cumulative = -3.23768e-17
GAMG:  Solving for p_rgh, Initial residual = 3.44466e-05, Final residual = 2.47352e-07, No Iterations 5
time step continuity errors : sum local = 3.90231e-05, global = -2.31894e-18, cumulative = -3.46957e-17
GAMG:  Solving for p_rgh, Initial residual = 2.1568e-05, Final residual = 9.24297e-09, No Iterations 8
time step continuity errors : sum local = 1.45649e-06, global = -2.33924e-18, cumulative = -3.7035e-17
ExecutionTime = 25.2 s  ClockTime = 25 s

Courant Number mean: 0.00719167 max: 0.888122
Interface Courant Number mean: 8.89987e-05 max: 0.116323
deltaT = 0.0245916
Time = 0.680309

PIMPLE: iteration 1
MULES: Solving for alpha.water
Phase-1 volume fraction = 0.400685  Min(alpha.water) = 2.24747e-237  Max(alpha.water) = 1.00238
MULES: Solving for alpha.water
Phase-1 volume fraction = 0.400685  Min(alpha.water) = 7.09174e-235  Max(alpha.water) = 1.0025
MULES: Solving for alpha.water
Phase-1 volume fraction = 0.400685  Min(alpha.water) = 1.35922e-232  Max(alpha.water) = 1.00262
GAMG:  Solving for p_rgh, Initial residual = 0.0113806, Final residual = 1.88431e-05, No Iterations 1
time step continuity errors : sum local = 0.00296432, global = 1.70488e-18, cumulative = -3.53301e-17
GAMG:  Solving for p_rgh, Initial residual = 3.52772e-05, Final residual = 3.11529e-07, No Iterations 5
time step continuity errors : sum local = 4.91428e-05, global = -2.53738e-18, cumulative = -3.78675e-17
GAMG:  Solving for p_rgh, Initial residual = 2.19846e-05, Final residual = 9.28391e-09, No Iterations 10
time step continuity errors : sum local = 1.46229e-06, global = -1.86239e-18, cumulative = -3.97298e-17
ExecutionTime = 25.83 s  ClockTime = 26 s

Courant Number mean: 0.00716403 max: 0.818609
Interface Courant Number mean: 8.67268e-05 max: 0.127066
deltaT = 0.0266409
Time = 0.70695

PIMPLE: iteration 1
MULES: Solving for alpha.water
Phase-1 volume fraction = 0.400685  Min(alpha.water) = 1.82168e-230  Max(alpha.water) = 1.00257
MULES: Solving for alpha.water
Phase-1 volume fraction = 0.400685  Min(alpha.water) = 2.03676e-228  Max(alpha.water) = 1.00252
MULES: Solving for alpha.water
Phase-1 volume fraction = 0.400685  Min(alpha.water) = 1.79238e-226  Max(alpha.water) = 1.00247
GAMG:  Solving for p_rgh, Initial residual = 0.0123434, Final residual = 2.17083e-05, No Iterations 1
time step continuity errors : sum local = 0.00377785, global = -4.52504e-18, cumulative = -4.42549e-17
GAMG:  Solving for p_rgh, Initial residual = 4.05699e-05, Final residual = 3.61286e-07, No Iterations 5
time step continuity errors : sum local = 6.29219e-05, global = 7.21736e-19, cumulative = -4.35331e-17
GAMG:  Solving for p_rgh, Initial residual = 2.49936e-05, Final residual = 9.03196e-09, No Iterations 8
time step continuity errors : sum local = 1.58529e-06, global = -8.41003e-19, cumulative = -4.43741e-17
ExecutionTime = 26.44 s  ClockTime = 26 s

Courant Number mean: 0.00781906 max: 1.10046
Interface Courant Number mean: 9.2739e-05 max: 0.135119
deltaT = 0.0209322
Time = 0.727882

PIMPLE: iteration 1
MULES: Solving for alpha.water
Phase-1 volume fraction = 0.400685  Min(alpha.water) = 1.02727e-224  Max(alpha.water) = 1.00327
MULES: Solving for alpha.water
Phase-1 volume fraction = 0.400685  Min(alpha.water) = 5.40446e-223  Max(alpha.water) = 1.00407
MULES: Solving for alpha.water
Phase-1 volume fraction = 0.400685  Min(alpha.water) = 2.77155e-221  Max(alpha.water) = 1.00488
GAMG:  Solving for p_rgh, Initial residual = 0.0104459, Final residual = 1.85001e-05, No Iterations 1
time step continuity errors : sum local = 0.00233933, global = -1.3844e-18, cumulative = -4.57585e-17
GAMG:  Solving for p_rgh, Initial residual = 3.361e-05, Final residual = 3.13234e-07, No Iterations 5
time step continuity errors : sum local = 3.96288e-05, global = -9.21683e-19, cumulative = -4.66802e-17
GAMG:  Solving for p_rgh, Initial residual = 1.9651e-05, Final residual = 7.96387e-09, No Iterations 9
time step continuity errors : sum local = 1.01208e-06, global = -9.33141e-19, cumulative = -4.76134e-17
ExecutionTime = 27.05 s  ClockTime = 27 s

Courant Number mean: 0.00611503 max: 0.921613
Interface Courant Number mean: 7.54971e-05 max: 0.116239
deltaT = 0.019437
Time = 0.747319

PIMPLE: iteration 1
MULES: Solving for alpha.water
Phase-1 volume fraction = 0.400685  Min(alpha.water) = 1.1706e-220  Max(alpha.water) = 1.00447
MULES: Solving for alpha.water
Phase-1 volume fraction = 0.400685  Min(alpha.water) = 1.29978e-220  Max(alpha.water) = 1.00407
MULES: Solving for alpha.water
Phase-1 volume fraction = 0.400685  Min(alpha.water) = 1.45425e-220  Max(alpha.water) = 1.00366
GAMG:  Solving for p_rgh, Initial residual = 0.00980287, Final residual = 1.77577e-05, No Iterations 1
time step continuity errors : sum local = 0.00202545, global = -1.58939e-18, cumulative = -4.92028e-17
GAMG:  Solving for p_rgh, Initial residual = 3.19899e-05, Final residual = 2.05463e-07, No Iterations 5
time step continuity errors : sum local = 2.34644e-05, global = -1.39405e-18, cumulative = -5.05968e-17
GAMG:  Solving for p_rgh, Initial residual = 1.79371e-05, Final residual = 8.68603e-09, No Iterations 8
time step continuity errors : sum local = 9.91805e-07, global = 8.80328e-19, cumulative = -4.97165e-17
ExecutionTime = 27.67 s  ClockTime = 28 s

Courant Number mean: 0.005703 max: 0.946156
Interface Courant Number mean: 7.09051e-05 max: 0.111808
deltaT = 0.0180487
Time = 0.765368

PIMPLE: iteration 1
MULES: Solving for alpha.water
Phase-1 volume fraction = 0.400685  Min(alpha.water) = 3.73673e-220  Max(alpha.water) = 1.00356
MULES: Solving for alpha.water
Phase-1 volume fraction = 0.400685  Min(alpha.water) = 5.48209e-219  Max(alpha.water) = 1.00346
MULES: Solving for alpha.water
Phase-1 volume fraction = 0.400685  Min(alpha.water) = 1.65926e-218  Max(alpha.water) = 1.00337
GAMG:  Solving for p_rgh, Initial residual = 0.00900271, Final residual = 1.6302e-05, No Iterations 1
time step continuity errors : sum local = 0.00167701, global = 2.67664e-19, cumulative = -4.94488e-17
GAMG:  Solving for p_rgh, Initial residual = 2.92272e-05, Final residual = 2.10184e-07, No Iterations 5
time step continuity errors : sum local = 2.16511e-05, global = 1.23878e-19, cumulative = -4.93249e-17
GAMG:  Solving for p_rgh, Initial residual = 1.63109e-05, Final residual = 9.33688e-09, No Iterations 8
time step continuity errors : sum local = 9.62233e-07, global = -1.45142e-18, cumulative = -5.07764e-17
ExecutionTime = 28.29 s  ClockTime = 28 s

Courant Number mean: 0.00530977 max: 0.884573
Interface Courant Number mean: 6.66495e-05 max: 0.104582
deltaT = 0.0180487
Time = 0.783416

PIMPLE: iteration 1
MULES: Solving for alpha.water
Phase-1 volume fraction = 0.400685  Min(alpha.water) = 6.20996e-218  Max(alpha.water) = 1.00322
MULES: Solving for alpha.water
Phase-1 volume fraction = 0.400685  Min(alpha.water) = 2.36973e-217  Max(alpha.water) = 1.00307
MULES: Solving for alpha.water
Phase-1 volume fraction = 0.400685  Min(alpha.water) = 9.19385e-217  Max(alpha.water) = 1.00292
GAMG:  Solving for p_rgh, Initial residual = 0.00919002, Final residual = 1.63691e-05, No Iterations 1
time step continuity errors : sum local = 0.00167836, global = -4.4093e-19, cumulative = -5.12173e-17
GAMG:  Solving for p_rgh, Initial residual = 2.94396e-05, Final residual = 2.09174e-07, No Iterations 5
time step continuity errors : sum local = 2.15034e-05, global = -3.32312e-19, cumulative = -5.15496e-17
GAMG:  Solving for p_rgh, Initial residual = 1.6384e-05, Final residual = 6.22944e-09, No Iterations 10
time step continuity errors : sum local = 6.39282e-07, global = -2.69188e-18, cumulative = -5.42415e-17
ExecutionTime = 28.9 s  ClockTime = 29 s

Courant Number mean: 0.00533373 max: 0.700865
Interface Courant Number mean: 6.72913e-05 max: 0.105649
deltaT = 0.0196894
Time = 0.803106

PIMPLE: iteration 1
MULES: Solving for alpha.water
Phase-1 volume fraction = 0.400685  Min(alpha.water) = 4.38982e-216  Max(alpha.water) = 1.00296
MULES: Solving for alpha.water
Phase-1 volume fraction = 0.400685  Min(alpha.water) = 2.08242e-215  Max(alpha.water) = 1.003
MULES: Solving for alpha.water
Phase-1 volume fraction = 0.400685  Min(alpha.water) = 9.49978e-215  Max(alpha.water) = 1.00304
GAMG:  Solving for p_rgh, Initial residual = 0.010083, Final residual = 1.7903e-05, No Iterations 1
time step continuity errors : sum local = 0.00205854, global = -3.19468e-18, cumulative = -5.74362e-17
GAMG:  Solving for p_rgh, Initial residual = 3.24e-05, Final residual = 2.54451e-07, No Iterations 5
time step continuity errors : sum local = 2.92829e-05, global = -2.32144e-18, cumulative = -5.97576e-17
GAMG:  Solving for p_rgh, Initial residual = 1.83398e-05, Final residual = 7.81666e-09, No Iterations 8
time step continuity errors : sum local = 9.01732e-07, global = -9.01629e-19, cumulative = -6.06592e-17
ExecutionTime = 29.51 s  ClockTime = 30 s

Courant Number mean: 0.00589901 max: 0.773051
Interface Courant Number mean: 7.422e-05 max: 0.115701
deltaT = 0.0218772
Time = 0.824983

PIMPLE: iteration 1
MULES: Solving for alpha.water
Phase-1 volume fraction = 0.400685  Min(alpha.water) = 5.91745e-214  Max(alpha.water) = 1.00277
MULES: Solving for alpha.water
Phase-1 volume fraction = 0.400685  Min(alpha.water) = 3.38338e-213  Max(alpha.water) = 1.00251
MULES: Solving for alpha.water
Phase-1 volume fraction = 0.400685  Min(alpha.water) = 1.78913e-212  Max(alpha.water) = 1.00224
GAMG:  Solving for p_rgh, Initial residual = 0.0115579, Final residual = 2.07536e-05, No Iterations 1
time step continuity errors : sum local = 0.00273906, global = 2.8446e-18, cumulative = -5.78146e-17
GAMG:  Solving for p_rgh, Initial residual = 3.80797e-05, Final residual = 3.02407e-07, No Iterations 5
time step continuity errors : sum local = 4.00306e-05, global = 1.27282e-19, cumulative = -5.76874e-17
GAMG:  Solving for p_rgh, Initial residual = 2.18216e-05, Final residual = 9.89841e-09, No Iterations 9
time step continuity errors : sum local = 1.30857e-06, global = 1.20426e-19, cumulative = -5.75669e-17
ExecutionTime = 30.12 s  ClockTime = 30 s

Courant Number mean: 0.0067269 max: 0.895937
Interface Courant Number mean: 8.30568e-05 max: 0.135823
deltaT = 0.0218772
Time = 0.84686

PIMPLE: iteration 1
MULES: Solving for alpha.water
Phase-1 volume fraction = 0.400685  Min(alpha.water) = 2.95341e-212  Max(alpha.water) = 1.0024
MULES: Solving for alpha.water
Phase-1 volume fraction = 0.400685  Min(alpha.water) = 4.00222e-212  Max(alpha.water) = 1.00256
MULES: Solving for alpha.water
Phase-1 volume fraction = 0.400685  Min(alpha.water) = 5.24485e-212  Max(alpha.water) = 1.00272
GAMG:  Solving for p_rgh, Initial residual = 0.0116719, Final residual = 2.12065e-05, No Iterations 1
time step continuity errors : sum local = 0.00279267, global = 5.5011e-19, cumulative = -5.70168e-17
GAMG:  Solving for p_rgh, Initial residual = 3.84537e-05, Final residual = 3.46012e-07, No Iterations 5
time step continuity errors : sum local = 4.56677e-05, global = 1.29219e-19, cumulative = -5.68876e-17
GAMG:  Solving for p_rgh, Initial residual = 2.17823e-05, Final residual = 6.87282e-09, No Iterations 11
time step continuity errors : sum local = 9.08307e-07, global = 1.36404e-19, cumulative = -5.67512e-17
ExecutionTime = 30.77 s  ClockTime = 31 s

Courant Number mean: 0.00690521 max: 0.911921
Interface Courant Number mean: 8.37797e-05 max: 0.141722
deltaT = 0.0191425
Time = 0.866002

PIMPLE: iteration 1
MULES: Solving for alpha.water
Phase-1 volume fraction = 0.400685  Min(alpha.water) = 6.51989e-212  Max(alpha.water) = 1.00293
MULES: Solving for alpha.water
Phase-1 volume fraction = 0.400685  Min(alpha.water) = 8.01788e-212  Max(alpha.water) = 1.00313
MULES: Solving for alpha.water
Phase-1 volume fraction = 0.400685  Min(alpha.water) = 9.81585e-212  Max(alpha.water) = 1.00334
GAMG:  Solving for p_rgh, Initial residual = 0.0103621, Final residual = 1.85887e-05, No Iterations 1
time step continuity errors : sum local = 0.00204402, global = -7.02531e-19, cumulative = -5.74537e-17
GAMG:  Solving for p_rgh, Initial residual = 3.25072e-05, Final residual = 2.7733e-07, No Iterations 5
time step continuity errors : sum local = 3.05974e-05, global = 6.40948e-19, cumulative = -5.68128e-17
GAMG:  Solving for p_rgh, Initial residual = 1.74083e-05, Final residual = 8.23395e-09, No Iterations 10
time step continuity errors : sum local = 9.06122e-07, global = -2.03899e-19, cumulative = -5.70167e-17
ExecutionTime = 31.4 s  ClockTime = 31 s

Courant Number mean: 0.00611456 max: 0.793515
Interface Courant Number mean: 7.37954e-05 max: 0.125468
deltaT = 0.0191425
Time = 0.885145

PIMPLE: iteration 1
MULES: Solving for alpha.water
Phase-1 volume fraction = 0.400685  Min(alpha.water) = 1.1444e-211  Max(alpha.water) = 1.0033
MULES: Solving for alpha.water
Phase-1 volume fraction = 0.400685  Min(alpha.water) = 1.34154e-211  Max(alpha.water) = 1.00326
MULES: Solving for alpha.water
Phase-1 volume fraction = 0.400685  Min(alpha.water) = 1.58662e-211  Max(alpha.water) = 1.00323
GAMG:  Solving for p_rgh, Initial residual = 0.0105064, Final residual = 1.87882e-05, No Iterations 1
time step continuity errors : sum local = 0.0020626, global = -1.03766e-18, cumulative = -5.80543e-17
GAMG:  Solving for p_rgh, Initial residual = 3.28216e-05, Final residual = 2.93664e-07, No Iterations 5
time step continuity errors : sum local = 3.22597e-05, global = -1.44824e-18, cumulative = -5.95026e-17
GAMG:  Solving for p_rgh, Initial residual = 1.76618e-05, Final residual = 5.75526e-09, No Iterations 8
time step continuity errors : sum local = 6.32882e-07, global = -3.31805e-19, cumulative = -5.98344e-17
ExecutionTime = 31.98 s  ClockTime = 32 s

Courant Number mean: 0.00617666 max: 0.785664
Interface Courant Number mean: 7.42362e-05 max: 0.125439
deltaT = 0.0191425
Time = 0.904287

PIMPLE: iteration 1
MULES: Solving for alpha.water
Phase-1 volume fraction = 0.400685  Min(alpha.water) = 2.02957e-211  Max(alpha.water) = 1.00315
MULES: Solving for alpha.water
Phase-1 volume fraction = 0.400685  Min(alpha.water) = 2.66025e-211  Max(alpha.water) = 1.00308
MULES: Solving for alpha.water
Phase-1 volume fraction = 0.400685  Min(alpha.water) = 3.5859e-211  Max(alpha.water) = 1.00301
GAMG:  Solving for p_rgh, Initial residual = 0.0105563, Final residual = 1.88188e-05, No Iterations 1
time step continuity errors : sum local = 0.00206292, global = 1.16917e-18, cumulative = -5.86652e-17
GAMG:  Solving for p_rgh, Initial residual = 3.23993e-05, Final residual = 2.73873e-07, No Iterations 5
time step continuity errors : sum local = 3.00536e-05, global = 1.34846e-18, cumulative = -5.73168e-17
GAMG:  Solving for p_rgh, Initial residual = 1.69683e-05, Final residual = 4.89301e-09, No Iterations 8
time step continuity errors : sum local = 5.37759e-07, global = -3.01032e-19, cumulative = -5.76178e-17
ExecutionTime = 32.6 s  ClockTime = 33 s

Courant Number mean: 0.00620839 max: 0.775418
Interface Courant Number mean: 7.42748e-05 max: 0.119967
deltaT = 0.0191425
Time = 0.92343

PIMPLE: iteration 1
MULES: Solving for alpha.water
Phase-1 volume fraction = 0.400685  Min(alpha.water) = 5.12883e-211  Max(alpha.water) = 1.0029
MULES: Solving for alpha.water
Phase-1 volume fraction = 0.400685  Min(alpha.water) = 7.5451e-211  Max(alpha.water) = 1.0028
MULES: Solving for alpha.water
Phase-1 volume fraction = 0.400685  Min(alpha.water) = 1.13465e-210  Max(alpha.water) = 1.00269
GAMG:  Solving for p_rgh, Initial residual = 0.0104827, Final residual = 1.86985e-05, No Iterations 1
time step continuity errors : sum local = 0.00204706, global = 4.4481e-19, cumulative = -5.7173e-17
GAMG:  Solving for p_rgh, Initial residual = 3.14386e-05, Final residual = 2.12701e-07, No Iterations 5
time step continuity errors : sum local = 2.33436e-05, global = -2.73786e-19, cumulative = -5.74468e-17
GAMG:  Solving for p_rgh, Initial residual = 1.61034e-05, Final residual = 8.89914e-09, No Iterations 8
time step continuity errors : sum local = 9.77038e-07, global = -1.38879e-18, cumulative = -5.88356e-17
ExecutionTime = 33.19 s  ClockTime = 33 s

Courant Number mean: 0.00621487 max: 0.769422
Interface Courant Number mean: 7.47117e-05 max: 0.121546
deltaT = 0.0191425
Time = 0.942572

PIMPLE: iteration 1
MULES: Solving for alpha.water
Phase-1 volume fraction = 0.400685  Min(alpha.water) = 1.70583e-210  Max(alpha.water) = 1.00248
MULES: Solving for alpha.water
Phase-1 volume fraction = 0.400685  Min(alpha.water) = 2.58856e-210  Max(alpha.water) = 1.00227
MULES: Solving for alpha.water
Phase-1 volume fraction = 0.400685  Min(alpha.water) = 3.9411e-210  Max(alpha.water) = 1.00206
GAMG:  Solving for p_rgh, Initial residual = 0.0103983, Final residual = 1.8433e-05, No Iterations 1
time step continuity errors : sum local = 0.00201478, global = -1.33945e-18, cumulative = -6.0175e-17
GAMG:  Solving for p_rgh, Initial residual = 3.0609e-05, Final residual = 1.93692e-07, No Iterations 5
time step continuity errors : sum local = 2.12073e-05, global = -1.4418e-19, cumulative = -6.03192e-17
GAMG:  Solving for p_rgh, Initial residual = 1.54751e-05, Final residual = 8.89202e-09, No Iterations 7
time step continuity errors : sum local = 9.74639e-07, global = -6.92301e-19, cumulative = -6.10115e-17
ExecutionTime = 33.79 s  ClockTime = 34 s

Courant Number mean: 0.00622122 max: 0.751652
Interface Courant Number mean: 7.52537e-05 max: 0.118604
deltaT = 0.0191425
Time = 0.961715

PIMPLE: iteration 1
MULES: Solving for alpha.water
Phase-1 volume fraction = 0.400685  Min(alpha.water) = 5.80883e-210  Max(alpha.water) = 1.00185
MULES: Solving for alpha.water
Phase-1 volume fraction = 0.400685  Min(alpha.water) = 8.5333e-210  Max(alpha.water) = 1.00164
MULES: Solving for alpha.water
Phase-1 volume fraction = 0.400685  Min(alpha.water) = 1.24777e-209  Max(alpha.water) = 1.00143
GAMG:  Solving for p_rgh, Initial residual = 0.0103323, Final residual = 1.8528e-05, No Iterations 1
time step continuity errors : sum local = 0.0020212, global = -4.5047e-19, cumulative = -6.1462e-17
GAMG:  Solving for p_rgh, Initial residual = 3.04512e-05, Final residual = 1.78189e-07, No Iterations 5
time step continuity errors : sum local = 1.94766e-05, global = -6.06623e-19, cumulative = -6.20686e-17
GAMG:  Solving for p_rgh, Initial residual = 1.51247e-05, Final residual = 8.99452e-09, No Iterations 8
time step continuity errors : sum local = 9.88423e-07, global = 1.60693e-18, cumulative = -6.04616e-17
ExecutionTime = 34.4 s  ClockTime = 34 s

Courant Number mean: 0.00622079 max: 0.72481
Interface Courant Number mean: 7.55665e-05 max: 0.124141
deltaT = 0.0191425
Time = 0.980857

PIMPLE: iteration 1
MULES: Solving for alpha.water
Phase-1 volume fraction = 0.400685  Min(alpha.water) = 1.78275e-209  Max(alpha.water) = 1.002
MULES: Solving for alpha.water
Phase-1 volume fraction = 0.400685  Min(alpha.water) = 2.53338e-209  Max(alpha.water) = 1.00256
MULES: Solving for alpha.water
Phase-1 volume fraction = 0.400685  Min(alpha.water) = 3.5799e-209  Max(alpha.water) = 1.00313
GAMG:  Solving for p_rgh, Initial residual = 0.0103068, Final residual = 1.86205e-05, No Iterations 1
time step continuity errors : sum local = 0.00202718, global = 2.4676e-18, cumulative = -5.7994e-17
GAMG:  Solving for p_rgh, Initial residual = 3.06629e-05, Final residual = 1.74502e-07, No Iterations 5
time step continuity errors : sum local = 1.9025e-05, global = 6.2262e-19, cumulative = -5.73714e-17
GAMG:  Solving for p_rgh, Initial residual = 1.52521e-05, Final residual = 9.19352e-09, No Iterations 7
time step continuity errors : sum local = 1.00123e-06, global = 1.71355e-18, cumulative = -5.56579e-17
ExecutionTime = 34.98 s  ClockTime = 35 s

Courant Number mean: 0.00623322 max: 0.691986
Interface Courant Number mean: 7.58745e-05 max: 0.125894
deltaT = 0.0191425
Time = 1

PIMPLE: iteration 1
MULES: Solving for alpha.water
Phase-1 volume fraction = 0.400685  Min(alpha.water) = 4.92911e-209  Max(alpha.water) = 1.00309
MULES: Solving for alpha.water
Phase-1 volume fraction = 0.400685  Min(alpha.water) = 6.75815e-209  Max(alpha.water) = 1.00306
MULES: Solving for alpha.water
Phase-1 volume fraction = 0.400685  Min(alpha.water) = 9.2265e-209  Max(alpha.water) = 1.00302
GAMG:  Solving for p_rgh, Initial residual = 0.0103212, Final residual = 1.86429e-05, No Iterations 1
time step continuity errors : sum local = 0.00202446, global = 8.08141e-19, cumulative = -5.48497e-17
GAMG:  Solving for p_rgh, Initial residual = 3.08349e-05, Final residual = 2.12771e-07, No Iterations 5
time step continuity errors : sum local = 2.3136e-05, global = -8.80214e-19, cumulative = -5.57299e-17
GAMG:  Solving for p_rgh, Initial residual = 1.55714e-05, Final residual = 4.05961e-09, No Iterations 9
time step continuity errors : sum local = 4.40948e-07, global = 3.27882e-18, cumulative = -5.24511e-17
ExecutionTime = 35.92 s  ClockTime = 36 s

Courant Number mean: 0.00622424 max: 0.69683
Interface Courant Number mean: 7.65207e-05 max: 0.129418
deltaT = 0.0212766
Time = 1.02128

PIMPLE: iteration 1
MULES: Solving for alpha.water
Phase-1 volume fraction = 0.400685  Min(alpha.water) = 1.30393e-208  Max(alpha.water) = 1.003
MULES: Solving for alpha.water
Phase-1 volume fraction = 0.400685  Min(alpha.water) = 1.83511e-208  Max(alpha.water) = 1.00298
MULES: Solving for alpha.water
Phase-1 volume fraction = 0.400685  Min(alpha.water) = 2.57176e-208  Max(alpha.water) = 1.00296
GAMG:  Solving for p_rgh, Initial residual = 0.011431, Final residual = 2.0848e-05, No Iterations 1
time step continuity errors : sum local = 0.00260275, global = 1.13135e-18, cumulative = -5.13198e-17
GAMG:  Solving for p_rgh, Initial residual = 3.49073e-05, Final residual = 2.11887e-07, No Iterations 5
time step continuity errors : sum local = 2.64862e-05, global = 4.22927e-18, cumulative = -4.70905e-17
GAMG:  Solving for p_rgh, Initial residual = 1.79538e-05, Final residual = 8.14869e-09, No Iterations 8
time step continuity errors : sum local = 1.02093e-06, global = 4.21923e-18, cumulative = -4.28713e-17
ExecutionTime = 36.51 s  ClockTime = 37 s

Courant Number mean: 0.00696019 max: 0.798318
Interface Courant Number mean: 8.55371e-05 max: 0.143134
deltaT = 0.0233029
Time = 1.04458

PIMPLE: iteration 1
MULES: Solving for alpha.water
Phase-1 volume fraction = 0.400685  Min(alpha.water) = 3.55438e-208  Max(alpha.water) = 1.00327
MULES: Solving for alpha.water
Phase-1 volume fraction = 0.400685  Min(alpha.water) = 4.89697e-208  Max(alpha.water) = 1.00358
MULES: Solving for alpha.water
Phase-1 volume fraction = 0.400685  Min(alpha.water) = 6.72612e-208  Max(alpha.water) = 1.00388
GAMG:  Solving for p_rgh, Initial residual = 0.0123311, Final residual = 2.2519e-05, No Iterations 1
time step continuity errors : sum local = 0.00316466, global = 3.29809e-18, cumulative = -3.95732e-17
GAMG:  Solving for p_rgh, Initial residual = 3.79235e-05, Final residual = 2.19163e-07, No Iterations 5
time step continuity errors : sum local = 3.07996e-05, global = 3.97505e-18, cumulative = -3.55982e-17
GAMG:  Solving for p_rgh, Initial residual = 1.96386e-05, Final residual = 9.97706e-09, No Iterations 8
time step continuity errors : sum local = 1.41198e-06, global = 5.34175e-18, cumulative = -3.02564e-17
ExecutionTime = 37.13 s  ClockTime = 37 s

Courant Number mean: 0.00768776 max: 0.893726
Interface Courant Number mean: 9.38554e-05 max: 0.15079
deltaT = 0.0233029
Time = 1.06788

PIMPLE: iteration 1
MULES: Solving for alpha.water
Phase-1 volume fraction = 0.400685  Min(alpha.water) = 9.21854e-208  Max(alpha.water) = 1.00305
MULES: Solving for alpha.water
Phase-1 volume fraction = 0.400685  Min(alpha.water) = 1.26163e-207  Max(alpha.water) = 1.00223
MULES: Solving for alpha.water
Phase-1 volume fraction = 0.400685  Min(alpha.water) = 1.72371e-207  Max(alpha.water) = 1.00141
GAMG:  Solving for p_rgh, Initial residual = 0.0121217, Final residual = 2.20263e-05, No Iterations 1
time step continuity errors : sum local = 0.00308747, global = 3.3023e-18, cumulative = -2.69541e-17
GAMG:  Solving for p_rgh, Initial residual = 3.71763e-05, Final residual = 2.11693e-07, No Iterations 5
time step continuity errors : sum local = 2.97086e-05, global = 5.21416e-18, cumulative = -2.17399e-17
GAMG:  Solving for p_rgh, Initial residual = 1.9229e-05, Final residual = 5.38947e-09, No Iterations 10
time step continuity errors : sum local = 7.5595e-07, global = 3.85476e-18, cumulative = -1.78852e-17
ExecutionTime = 37.76 s  ClockTime = 38 s

Courant Number mean: 0.00770748 max: 0.941159
Interface Courant Number mean: 9.47876e-05 max: 0.159598
deltaT = 0.0221933
Time = 1.09008

PIMPLE: iteration 1
MULES: Solving for alpha.water
Phase-1 volume fraction = 0.400685  Min(alpha.water) = 2.34478e-207  Max(alpha.water) = 1.00134
MULES: Solving for alpha.water
Phase-1 volume fraction = 0.400685  Min(alpha.water) = 3.18649e-207  Max(alpha.water) = 1.00128
MULES: Solving for alpha.water
Phase-1 volume fraction = 0.400685  Min(alpha.water) = 4.32331e-207  Max(alpha.water) = 1.00122
GAMG:  Solving for p_rgh, Initial residual = 0.011526, Final residual = 2.08536e-05, No Iterations 1
time step continuity errors : sum local = 0.00273073, global = 2.29196e-18, cumulative = -1.55932e-17
GAMG:  Solving for p_rgh, Initial residual = 3.5178e-05, Final residual = 2.09301e-07, No Iterations 5
time step continuity errors : sum local = 2.74665e-05, global = 1.3009e-18, cumulative = -1.42923e-17
GAMG:  Solving for p_rgh, Initial residual = 1.82565e-05, Final residual = 7.22075e-09, No Iterations 9
time step continuity errors : sum local = 9.50178e-07, global = 4.51602e-18, cumulative = -9.7763e-18
ExecutionTime = 38.35 s  ClockTime = 38 s

Courant Number mean: 0.00734591 max: 0.952387
Interface Courant Number mean: 9.13896e-05 max: 0.154099
deltaT = 0.0206801
Time = 1.11076

PIMPLE: iteration 1
MULES: Solving for alpha.water
Phase-1 volume fraction = 0.400685  Min(alpha.water) = 5.41535e-207  Max(alpha.water) = 1.00086
MULES: Solving for alpha.water
Phase-1 volume fraction = 0.400685  Min(alpha.water) = 6.78048e-207  Max(alpha.water) = 1.00051
MULES: Solving for alpha.water
Phase-1 volume fraction = 0.400685  Min(alpha.water) = 8.48311e-207  Max(alpha.water) = 1.0004
GAMG:  Solving for p_rgh, Initial residual = 0.0110095, Final residual = 2.00962e-05, No Iterations 1
time step continuity errors : sum local = 0.00238701, global = 2.99264e-18, cumulative = -6.78367e-18
GAMG:  Solving for p_rgh, Initial residual = 3.33189e-05, Final residual = 2.07724e-07, No Iterations 5
time step continuity errors : sum local = 2.47647e-05, global = 4.32727e-18, cumulative = -2.4564e-18
GAMG:  Solving for p_rgh, Initial residual = 1.69169e-05, Final residual = 4.73049e-09, No Iterations 9
time step continuity errors : sum local = 5.62771e-07, global = 4.34605e-18, cumulative = 1.88965e-18
ExecutionTime = 38.98 s  ClockTime = 39 s

Courant Number mean: 0.00684202 max: 0.907556
Interface Courant Number mean: 8.66628e-05 max: 0.140777
deltaT = 0.0202101
Time = 1.13097

PIMPLE: iteration 1
MULES: Solving for alpha.water
Phase-1 volume fraction = 0.400685  Min(alpha.water) = 9.56837e-207  Max(alpha.water) = 1.0004
MULES: Solving for alpha.water
Phase-1 volume fraction = 0.400685  Min(alpha.water) = 1.07952e-206  Max(alpha.water) = 1.0004
MULES: Solving for alpha.water
Phase-1 volume fraction = 0.400685  Min(alpha.water) = 1.21818e-206  Max(alpha.water) = 1.0004
GAMG:  Solving for p_rgh, Initial residual = 0.0110589, Final residual = 2.02116e-05, No Iterations 1
time step continuity errors : sum local = 0.00232175, global = 2.63506e-18, cumulative = 4.52471e-18
GAMG:  Solving for p_rgh, Initial residual = 3.31464e-05, Final residual = 1.99962e-07, No Iterations 5
time step continuity errors : sum local = 2.29837e-05, global = 2.04037e-18, cumulative = 6.56508e-18
GAMG:  Solving for p_rgh, Initial residual = 1.64195e-05, Final residual = 4.83007e-09, No Iterations 9
time step continuity errors : sum local = 5.55834e-07, global = 3.21569e-18, cumulative = 9.78077e-18
ExecutionTime = 39.59 s  ClockTime = 40 s

Courant Number mean: 0.00669625 max: 0.893745
Interface Courant Number mean: 8.58761e-05 max: 0.129706
deltaT = 0.0202101
Time = 1.15118

PIMPLE: iteration 1
MULES: Solving for alpha.water
Phase-1 volume fraction = 0.400685  Min(alpha.water) = 1.35814e-206  Max(alpha.water) = 1.00045
MULES: Solving for alpha.water
Phase-1 volume fraction = 0.400685  Min(alpha.water) = 1.51395e-206  Max(alpha.water) = 1.00052
MULES: Solving for alpha.water
Phase-1 volume fraction = 0.400685  Min(alpha.water) = 1.68734e-206  Max(alpha.water) = 1.00059
GAMG:  Solving for p_rgh, Initial residual = 0.0112486, Final residual = 2.10789e-05, No Iterations 1
time step continuity errors : sum local = 0.00241764, global = 3.12257e-18, cumulative = 1.29033e-17
GAMG:  Solving for p_rgh, Initial residual = 3.46207e-05, Final residual = 2.19739e-07, No Iterations 5
[...]
time step continuity errors : sum local = 0.000216565, global = -1.82157e-18, cumulative = -2.63674e-17
GAMG:  Solving for p_rgh, Initial residual = 0.000103077, Final residual = 5.68711e-09, No Iterations 12
time step continuity errors : sum local = 7.90533e-07, global = -2.42576e-18, cumulative = -2.87932e-17
ExecutionTime = 936.09 s  ClockTime = 937 s

Courant Number mean: 0.0240938 max: 0.9882
Interface Courant Number mean: 0.000307499 max: 0.264655
deltaT = 0.0195582
Time = 15.7457

PIMPLE: iteration 1
MULES: Solving for alpha.water
Phase-1 volume fraction = 0.400685  Min(alpha.water) = -1.01189e-10  Max(alpha.water) = 1.00031
MULES: Solving for alpha.water
Phase-1 volume fraction = 0.400685  Min(alpha.water) = -9.82847e-11  Max(alpha.water) = 1.00034
MULES: Solving for alpha.water
Phase-1 volume fraction = 0.400685  Min(alpha.water) = -9.54506e-11  Max(alpha.water) = 1.00037
GAMG:  Solving for p_rgh, Initial residual = 0.046755, Final residual = 7.62348e-05, No Iterations 1
time step continuity errors : sum local = 0.00883231, global = 5.20818e-20, cumulative = -2.87411e-17
GAMG:  Solving for p_rgh, Initial residual = 0.000143386, Final residual = 1.2192e-06, No Iterations 5
time step continuity errors : sum local = 0.000140824, global = -1.86663e-18, cumulative = -3.06077e-17
GAMG:  Solving for p_rgh, Initial residual = 8.66262e-05, Final residual = 8.50037e-09, No Iterations 11
time step continuity errors : sum local = 9.89897e-07, global = -2.14474e-18, cumulative = -3.27525e-17
ExecutionTime = 936.73 s  ClockTime = 938 s

Courant Number mean: 0.0207169 max: 0.920137
Interface Courant Number mean: 0.000262404 max: 0.230786
deltaT = 0.0181612
Time = 15.7639

PIMPLE: iteration 1
MULES: Solving for alpha.water
Phase-1 volume fraction = 0.400685  Min(alpha.water) = -9.34163e-11  Max(alpha.water) = 1.00042
MULES: Solving for alpha.water
Phase-1 volume fraction = 0.400685  Min(alpha.water) = -9.14182e-11  Max(alpha.water) = 1.00046
MULES: Solving for alpha.water
Phase-1 volume fraction = 0.400685  Min(alpha.water) = -8.94556e-11  Max(alpha.water) = 1.00051
GAMG:  Solving for p_rgh, Initial residual = 0.0436847, Final residual = 6.98234e-05, No Iterations 1
time step continuity errors : sum local = 0.00740277, global = -3.26081e-18, cumulative = -3.60133e-17
GAMG:  Solving for p_rgh, Initial residual = 0.000129809, Final residual = 1.09946e-06, No Iterations 5
time step continuity errors : sum local = 0.000116416, global = -5.81369e-19, cumulative = -3.65946e-17
GAMG:  Solving for p_rgh, Initial residual = 7.75577e-05, Final residual = 7.81385e-09, No Iterations 13
time step continuity errors : sum local = 8.31224e-07, global = -2.16866e-18, cumulative = -3.87633e-17
ExecutionTime = 937.39 s  ClockTime = 938 s

Courant Number mean: 0.0192205 max: 0.916258
Interface Courant Number mean: 0.000242674 max: 0.210035
deltaT = 0.016864
Time = 15.7808

PIMPLE: iteration 1
MULES: Solving for alpha.water
Phase-1 volume fraction = 0.400685  Min(alpha.water) = -8.79293e-11  Max(alpha.water) = 1.00049
MULES: Solving for alpha.water
Phase-1 volume fraction = 0.400685  Min(alpha.water) = -8.64245e-11  Max(alpha.water) = 1.00048
MULES: Solving for alpha.water
Phase-1 volume fraction = 0.400685  Min(alpha.water) = -8.49409e-11  Max(alpha.water) = 1.00046
GAMG:  Solving for p_rgh, Initial residual = 0.0403463, Final residual = 6.37e-05, No Iterations 1
time step continuity errors : sum local = 0.00616774, global = -1.61571e-18, cumulative = -4.0379e-17
GAMG:  Solving for p_rgh, Initial residual = 0.000116089, Final residual = 9.32947e-07, No Iterations 5
time step continuity errors : sum local = 9.03288e-05, global = -1.17905e-18, cumulative = -4.15581e-17
GAMG:  Solving for p_rgh, Initial residual = 6.78923e-05, Final residual = 8.05706e-09, No Iterations 15
time step continuity errors : sum local = 7.81641e-07, global = -2.17667e-18, cumulative = -4.37347e-17
ExecutionTime = 938.04 s  ClockTime = 939 s

Courant Number mean: 0.0177575 max: 0.859456
Interface Courant Number mean: 0.000223152 max: 0.188175
deltaT = 0.016864
Time = 15.7976

PIMPLE: iteration 1
MULES: Solving for alpha.water
Phase-1 volume fraction = 0.400685  Min(alpha.water) = -8.35822e-11  Max(alpha.water) = 1.00043
MULES: Solving for alpha.water
Phase-1 volume fraction = 0.400685  Min(alpha.water) = -8.22411e-11  Max(alpha.water) = 1.00039
MULES: Solving for alpha.water
Phase-1 volume fraction = 0.400685  Min(alpha.water) = -8.09175e-11  Max(alpha.water) = 1.00036
GAMG:  Solving for p_rgh, Initial residual = 0.039442, Final residual = 6.23324e-05, No Iterations 1
time step continuity errors : sum local = 0.00606292, global = -1.52494e-18, cumulative = -4.52597e-17
GAMG:  Solving for p_rgh, Initial residual = 0.000112713, Final residual = 8.50319e-07, No Iterations 5
time step continuity errors : sum local = 8.26529e-05, global = -1.99455e-18, cumulative = -4.72542e-17
GAMG:  Solving for p_rgh, Initial residual = 6.53673e-05, Final residual = 5.49673e-09, No Iterations 12
time step continuity errors : sum local = 5.35479e-07, global = -2.01207e-18, cumulative = -4.92663e-17
ExecutionTime = 938.71 s  ClockTime = 940 s

Courant Number mean: 0.0176638 max: 0.845925
Interface Courant Number mean: 0.000223838 max: 0.187864
deltaT = 0.016864
Time = 15.8145

PIMPLE: iteration 1
MULES: Solving for alpha.water
Phase-1 volume fraction = 0.400685  Min(alpha.water) = -7.96077e-11  Max(alpha.water) = 1.00035
MULES: Solving for alpha.water
Phase-1 volume fraction = 0.400685  Min(alpha.water) = -7.83148e-11  Max(alpha.water) = 1.00034
MULES: Solving for alpha.water
Phase-1 volume fraction = 0.400685  Min(alpha.water) = -7.70388e-11  Max(alpha.water) = 1.00033
GAMG:  Solving for p_rgh, Initial residual = 0.0394023, Final residual = 6.19596e-05, No Iterations 1
time step continuity errors : sum local = 0.00604567, global = -2.06955e-18, cumulative = -5.13358e-17
GAMG:  Solving for p_rgh, Initial residual = 0.000112606, Final residual = 8.29305e-07, No Iterations 5
time step continuity errors : sum local = 8.08059e-05, global = -2.34491e-18, cumulative = -5.36807e-17
GAMG:  Solving for p_rgh, Initial residual = 6.57039e-05, Final residual = 5.29201e-09, No Iterations 10
time step continuity errors : sum local = 5.16464e-07, global = -1.86044e-18, cumulative = -5.55412e-17
ExecutionTime = 939.34 s  ClockTime = 940 s

Courant Number mean: 0.0175847 max: 0.813036
Interface Courant Number mean: 0.000224906 max: 0.193744
deltaT = 0.0185503
Time = 15.833

PIMPLE: iteration 1
MULES: Solving for alpha.water
Phase-1 volume fraction = 0.400685  Min(alpha.water) = -7.55864e-11  Max(alpha.water) = 1.00034
MULES: Solving for alpha.water
Phase-1 volume fraction = 0.400685  Min(alpha.water) = -7.41556e-11  Max(alpha.water) = 1.00035
MULES: Solving for alpha.water
Phase-1 volume fraction = 0.400685  Min(alpha.water) = -7.27461e-11  Max(alpha.water) = 1.00037
GAMG:  Solving for p_rgh, Initial residual = 0.0437902, Final residual = 6.84564e-05, No Iterations 1
time step continuity errors : sum local = 0.0074952, global = -1.20657e-18, cumulative = -5.67478e-17
GAMG:  Solving for p_rgh, Initial residual = 0.000125897, Final residual = 9.82301e-07, No Iterations 5
time step continuity errors : sum local = 0.000107343, global = -2.40631e-18, cumulative = -5.91541e-17
GAMG:  Solving for p_rgh, Initial residual = 7.46882e-05, Final residual = 7.09279e-09, No Iterations 10
time step continuity errors : sum local = 7.75426e-07, global = -1.30892e-18, cumulative = -6.0463e-17
ExecutionTime = 939.94 s  ClockTime = 941 s

Courant Number mean: 0.0193716 max: 0.867227
Interface Courant Number mean: 0.000246691 max: 0.198008
deltaT = 0.0185503
Time = 15.8516

PIMPLE: iteration 1
MULES: Solving for alpha.water
Phase-1 volume fraction = 0.400685  Min(alpha.water) = -7.12384e-11  Max(alpha.water) = 1.00035
MULES: Solving for alpha.water
Phase-1 volume fraction = 0.400685  Min(alpha.water) = -6.97549e-11  Max(alpha.water) = 1.00032
MULES: Solving for alpha.water
Phase-1 volume fraction = 0.400685  Min(alpha.water) = -6.82952e-11  Max(alpha.water) = 1.0003
GAMG:  Solving for p_rgh, Initial residual = 0.0438546, Final residual = 6.91817e-05, No Iterations 1
time step continuity errors : sum local = 0.00756823, global = -1.06153e-18, cumulative = -6.15245e-17
GAMG:  Solving for p_rgh, Initial residual = 0.000127045, Final residual = 9.97946e-07, No Iterations 5
time step continuity errors : sum local = 0.000108997, global = -1.2048e-18, cumulative = -6.27293e-17
GAMG:  Solving for p_rgh, Initial residual = 7.52278e-05, Final residual = 8.33526e-09, No Iterations 11
time step continuity errors : sum local = 9.1147e-07, global = -9.39694e-19, cumulative = -6.3669e-17
ExecutionTime = 940.6 s  ClockTime = 941 s

Courant Number mean: 0.0194099 max: 0.856145
Interface Courant Number mean: 0.0002456 max: 0.202523
deltaT = 0.0185503
Time = 15.8701

PIMPLE: iteration 1
MULES: Solving for alpha.water
Phase-1 volume fraction = 0.400685  Min(alpha.water) = -6.67345e-11  Max(alpha.water) = 1.00028
MULES: Solving for alpha.water
Phase-1 volume fraction = 0.400685  Min(alpha.water) = -6.52009e-11  Max(alpha.water) = 1.00027
MULES: Solving for alpha.water
Phase-1 volume fraction = 0.400685  Min(alpha.water) = -6.36941e-11  Max(alpha.water) = 1.00025
GAMG:  Solving for p_rgh, Initial residual = 0.0436866, Final residual = 6.85796e-05, No Iterations 1
time step continuity errors : sum local = 0.00751248, global = 9.13862e-19, cumulative = -6.27552e-17
GAMG:  Solving for p_rgh, Initial residual = 0.000127195, Final residual = 9.20946e-07, No Iterations 5
time step continuity errors : sum local = 0.000100661, global = 9.2792e-19, cumulative = -6.18272e-17
GAMG:  Solving for p_rgh, Initial residual = 7.58878e-05, Final residual = 3.09981e-09, No Iterations 13
time step continuity errors : sum local = 3.39726e-07, global = 1.31831e-19, cumulative = -6.16954e-17
ExecutionTime = 941.24 s  ClockTime = 942 s

Courant Number mean: 0.0194724 max: 0.830572
Interface Courant Number mean: 0.000245092 max: 0.197928
deltaT = 0.0185503
Time = 15.8887

PIMPLE: iteration 1
MULES: Solving for alpha.water
Phase-1 volume fraction = 0.400685  Min(alpha.water) = -6.2059e-11  Max(alpha.water) = 1.00024
MULES: Solving for alpha.water
Phase-1 volume fraction = 0.400685  Min(alpha.water) = -6.04552e-11  Max(alpha.water) = 1.00023
MULES: Solving for alpha.water
Phase-1 volume fraction = 0.400685  Min(alpha.water) = -5.88823e-11  Max(alpha.water) = 1.00023
GAMG:  Solving for p_rgh, Initial residual = 0.0435159, Final residual = 6.90807e-05, No Iterations 1
time step continuity errors : sum local = 0.00758226, global = 2.62414e-18, cumulative = -5.90713e-17
GAMG:  Solving for p_rgh, Initial residual = 0.000128083, Final residual = 8.91266e-07, No Iterations 5
time step continuity errors : sum local = 9.77241e-05, global = -5.05475e-19, cumulative = -5.95767e-17
GAMG:  Solving for p_rgh, Initial residual = 7.63303e-05, Final residual = 7.23229e-09, No Iterations 13
time step continuity errors : sum local = 7.94224e-07, global = 1.36814e-18, cumulative = -5.82086e-17
ExecutionTime = 941.89 s  ClockTime = 943 s

Courant Number mean: 0.0195591 max: 0.762802
Interface Courant Number mean: 0.000243128 max: 0.197655
deltaT = 0.0185503
Time = 15.9072

PIMPLE: iteration 1
MULES: Solving for alpha.water
Phase-1 volume fraction = 0.400685  Min(alpha.water) = -5.71372e-11  Max(alpha.water) = 1.0002
MULES: Solving for alpha.water
Phase-1 volume fraction = 0.400685  Min(alpha.water) = -5.54303e-11  Max(alpha.water) = 1.00018
MULES: Solving for alpha.water
Phase-1 volume fraction = 0.400685  Min(alpha.water) = -5.37611e-11  Max(alpha.water) = 1.00018
GAMG:  Solving for p_rgh, Initial residual = 0.0427418, Final residual = 6.78267e-05, No Iterations 1
time step continuity errors : sum local = 0.00747289, global = 1.60491e-18, cumulative = -5.66037e-17
GAMG:  Solving for p_rgh, Initial residual = 0.000125204, Final residual = 9.36504e-07, No Iterations 5
time step continuity errors : sum local = 0.000103062, global = 5.48698e-19, cumulative = -5.6055e-17
GAMG:  Solving for p_rgh, Initial residual = 7.42868e-05, Final residual = 6.01629e-09, No Iterations 12
time step continuity errors : sum local = 6.62906e-07, global = 1.71201e-21, cumulative = -5.60533e-17
ExecutionTime = 942.54 s  ClockTime = 943 s

Courant Number mean: 0.0196395 max: 0.860545
Interface Courant Number mean: 0.000241996 max: 0.205035
deltaT = 0.0185503
Time = 15.9258

PIMPLE: iteration 1
MULES: Solving for alpha.water
Phase-1 volume fraction = 0.400685  Min(alpha.water) = -5.19507e-11  Max(alpha.water) = 1.00018
MULES: Solving for alpha.water
Phase-1 volume fraction = 0.400685  Min(alpha.water) = -5.01842e-11  Max(alpha.water) = 1.00018
MULES: Solving for alpha.water
Phase-1 volume fraction = 0.400685  Min(alpha.water) = -6.3571e-11  Max(alpha.water) = 1.00018
GAMG:  Solving for p_rgh, Initial residual = 0.0423992, Final residual = 6.70749e-05, No Iterations 1
time step continuity errors : sum local = 0.00740619, global = -1.09727e-18, cumulative = -5.71506e-17
GAMG:  Solving for p_rgh, Initial residual = 0.000123482, Final residual = 9.31442e-07, No Iterations 5
time step continuity errors : sum local = 0.000102654, global = -9.22008e-19, cumulative = -5.80726e-17
GAMG:  Solving for p_rgh, Initial residual = 7.30907e-05, Final residual = 6.67731e-09, No Iterations 10
time step continuity errors : sum local = 7.36624e-07, global = 7.01298e-19, cumulative = -5.73713e-17
ExecutionTime = 943.15 s  ClockTime = 944 s

Courant Number mean: 0.0197598 max: 0.945211
Interface Courant Number mean: 0.000241469 max: 0.208556
deltaT = 0.0148403
Time = 15.9406

PIMPLE: iteration 1
MULES: Solving for alpha.water
Phase-1 volume fraction = 0.400685  Min(alpha.water) = -6.22624e-11  Max(alpha.water) = 1.00018
MULES: Solving for alpha.water
Phase-1 volume fraction = 0.400685  Min(alpha.water) = -6.09744e-11  Max(alpha.water) = 1.00018
MULES: Solving for alpha.water
Phase-1 volume fraction = 0.400685  Min(alpha.water) = -5.97072e-11  Max(alpha.water) = 1.00017
GAMG:  Solving for p_rgh, Initial residual = 0.0335798, Final residual = 5.18026e-05, No Iterations 1
time step continuity errors : sum local = 0.0043669, global = 5.70074e-19, cumulative = -5.68012e-17
GAMG:  Solving for p_rgh, Initial residual = 9.41794e-05, Final residual = 7.14358e-07, No Iterations 5
time step continuity errors : sum local = 6.01145e-05, global = -2.7521e-19, cumulative = -5.70764e-17
GAMG:  Solving for p_rgh, Initial residual = 5.44776e-05, Final residual = 6.64727e-09, No Iterations 9
time step continuity errors : sum local = 5.62426e-07, global = 3.44395e-19, cumulative = -5.6732e-17
ExecutionTime = 943.79 s  ClockTime = 945 s

Courant Number mean: 0.0157261 max: 0.786198
Interface Courant Number mean: 0.00019477 max: 0.168443
deltaT = 0.0148403
Time = 15.9555

PIMPLE: iteration 1
MULES: Solving for alpha.water
Phase-1 volume fraction = 0.400685  Min(alpha.water) = -5.8543e-11  Max(alpha.water) = 1.00017
MULES: Solving for alpha.water
Phase-1 volume fraction = 0.400685  Min(alpha.water) = -5.73936e-11  Max(alpha.water) = 1.00016
MULES: Solving for alpha.water
Phase-1 volume fraction = 0.400685  Min(alpha.water) = -5.62587e-11  Max(alpha.water) = 1.00015
GAMG:  Solving for p_rgh, Initial residual = 0.0337362, Final residual = 5.21655e-05, No Iterations 1
time step continuity errors : sum local = 0.00438967, global = 1.62109e-18, cumulative = -5.51109e-17
GAMG:  Solving for p_rgh, Initial residual = 9.48304e-05, Final residual = 7.87918e-07, No Iterations 5
time step continuity errors : sum local = 6.62148e-05, global = 4.26333e-19, cumulative = -5.46846e-17
GAMG:  Solving for p_rgh, Initial residual = 5.50574e-05, Final residual = 6.25798e-09, No Iterations 9
time step continuity errors : sum local = 5.25681e-07, global = 8.59925e-19, cumulative = -5.38247e-17
ExecutionTime = 944.4 s  ClockTime = 945 s

Courant Number mean: 0.0156633 max: 0.815189
Interface Courant Number mean: 0.000195468 max: 0.159577
deltaT = 0.0148403
Time = 15.9703

PIMPLE: iteration 1
MULES: Solving for alpha.water
Phase-1 volume fraction = 0.400685  Min(alpha.water) = -5.52169e-11  Max(alpha.water) = 1.00015
MULES: Solving for alpha.water
Phase-1 volume fraction = 0.400685  Min(alpha.water) = -5.41863e-11  Max(alpha.water) = 1.00015
MULES: Solving for alpha.water
Phase-1 volume fraction = 0.400685  Min(alpha.water) = -5.31669e-11  Max(alpha.water) = 1.00015
GAMG:  Solving for p_rgh, Initial residual = 0.0340245, Final residual = 5.25238e-05, No Iterations 1
time step continuity errors : sum local = 0.00440829, global = 1.1351e-18, cumulative = -5.26895e-17
GAMG:  Solving for p_rgh, Initial residual = 9.49276e-05, Final residual = 8.22966e-07, No Iterations 5
time step continuity errors : sum local = 6.89337e-05, global = 9.04351e-19, cumulative = -5.17852e-17
GAMG:  Solving for p_rgh, Initial residual = 5.47814e-05, Final residual = 9.90901e-09, No Iterations 9
time step continuity errors : sum local = 8.32863e-07, global = 4.98824e-20, cumulative = -5.17353e-17
ExecutionTime = 944.99 s  ClockTime = 946 s

Courant Number mean: 0.0155755 max: 0.825628
Interface Courant Number mean: 0.000194504 max: 0.142233
deltaT = 0.0148403
Time = 15.9852

PIMPLE: iteration 1
MULES: Solving for alpha.water
Phase-1 volume fraction = 0.400685  Min(alpha.water) = -5.22162e-11  Max(alpha.water) = 1.00015
MULES: Solving for alpha.water
Phase-1 volume fraction = 0.400685  Min(alpha.water) = -5.12746e-11  Max(alpha.water) = 1.00015
MULES: Solving for alpha.water
Phase-1 volume fraction = 0.400685  Min(alpha.water) = -5.03422e-11  Max(alpha.water) = 1.00015
GAMG:  Solving for p_rgh, Initial residual = 0.0339661, Final residual = 5.207e-05, No Iterations 1
time step continuity errors : sum local = 0.00436027, global = 7.85323e-19, cumulative = -5.095e-17
GAMG:  Solving for p_rgh, Initial residual = 9.38258e-05, Final residual = 7.92253e-07, No Iterations 5
time step continuity errors : sum local = 6.62857e-05, global = -9.25949e-19, cumulative = -5.18759e-17
GAMG:  Solving for p_rgh, Initial residual = 5.40204e-05, Final residual = 8.92854e-09, No Iterations 10
time step continuity errors : sum local = 7.51999e-07, global = -6.57282e-20, cumulative = -5.19417e-17
ExecutionTime = 945.64 s  ClockTime = 946 s

Courant Number mean: 0.015468 max: 0.817322
Interface Courant Number mean: 0.000192491 max: 0.136358
deltaT = 0.0148403
Time = 16

--> FOAM Warning : 
    From function Type Foam::interpolationTable<Type>::operator()(Foam::scalar) const [with Type = Foam::Vector<double>; Foam::scalar = double]
    in file /opt/openfoam4/src/OpenFOAM/lnInclude/interpolationTable.C at line 533
    value (16) overflow
    Continuing with the last entry
PIMPLE: iteration 1
MULES: Solving for alpha.water
Phase-1 volume fraction = 0.400685  Min(alpha.water) = -4.94525e-11  Max(alpha.water) = 1.00016
MULES: Solving for alpha.water
Phase-1 volume fraction = 0.400685  Min(alpha.water) = -4.85711e-11  Max(alpha.water) = 1.0002
MULES: Solving for alpha.water
Phase-1 volume fraction = 0.400685  Min(alpha.water) = -4.7698e-11  Max(alpha.water) = 1.00024
GAMG:  Solving for p_rgh, Initial residual = 0.033267, Final residual = 5.0916e-05, No Iterations 1
time step continuity errors : sum local = 0.00426699, global = 2.33221e-19, cumulative = -5.17084e-17
GAMG:  Solving for p_rgh, Initial residual = 9.11014e-05, Final residual = 7.09219e-07, No Iterations 5
time step continuity errors : sum local = 5.94402e-05, global = -5.46163e-19, cumulative = -5.22546e-17
GAMG:  Solving for p_rgh, Initial residual = 5.19276e-05, Final residual = 6.46472e-09, No Iterations 9
time step continuity errors : sum local = 5.41978e-07, global = -3.22049e-19, cumulative = -5.25767e-17
ExecutionTime = 946.56 s  ClockTime = 947 s

End

Finalising parallel run
