/*---------------------------------------------------------------------------*\
| =========                 |                                                 |
| \\      /  F ield         | OpenFOAM: The Open Source CFD Toolbox           |
|  \\    /   O peration     | Version:  4.1                                   |
|   \\  /    A nd           | Web:      www.OpenFOAM.org                      |
|    \\/     M anipulation  |                                                 |
\*---------------------------------------------------------------------------*/
Build  : 4.1
Exec   : interDyMFoamUsrc -parallel
Date   : Feb 14 2019
Time   : 12:35:50
Host   : "RN10"
PID    : 19110
Case   : /home/rn10/OpenFOAM/Tanks/2019/RerunsForIMPSRC/L_1b4L_H_5b4d/Shallow_d0p74_H0p03_T5p582
nProcs : 12
Slaves : 
11
(
"RN10.19111"
"RN10.19112"
"RN10.19113"
"RN10.19114"
"RN10.19115"
"RN10.19116"
"RN10.19117"
"RN10.19118"
"RN10.19119"
"RN10.19120"
"RN10.19121"
)

Pstream initialized with:
    floatTransfer      : 0
    nProcsSimpleSum    : 0
    commsType          : nonBlocking
    polling iterations : 0
sigFpe : Enabling floating point exception trapping (FOAM_SIGFPE).
fileModificationChecking : Monitoring run-time modified files using timeStampMaster
allowSystemOperations : Allowing user-supplied system call operations

// * * * * * * * * * * * * * * * * * * * * * * * * * * * * * * * * * * * * * //
Create time

Create mesh for time = 0

Selecting dynamicFvMesh staticFvMesh

PIMPLE: Operating solver in PISO mode

Reading field p_rgh

Reading field U

Reading/calculating face flux field phi

Reading field sand

Reading field Uana

Reading transportProperties

Selecting incompressible transport model Newtonian
Selecting incompressible transport model Newtonian
Reading field relax

Selecting turbulence model type laminar

Reading g

Reading hRef
Calculating field g.h

No MRF models present

Writing 0 cells to cellSet relaxCells
No finite volume options present

GAMG:  Solving for pcorr, Initial residual = 0, Final residual = 0, No Iterations 0
time step continuity errors : sum local = 0, global = 0, cumulative = 0
Reading/calculating face velocity Uf

Courant Number mean: 0 max: 0

Starting time loop

--> FOAM Warning : 
    From function void Foam::timeControl::read(const Foam::dictionary&)
    in file db/functionObjects/timeControl/timeControl.C at line 89
    Reading "/home/rn10/OpenFOAM/Tanks/2019/RerunsForIMPSRC/L_1b4L_H_5b4d/Shallow_d0p74_H0p03_T5p582/system/controlDict.functions.waveprobes" from line 66 to line 88
    Using deprecated 'outputControl'
    Please use 'writeControl' with 'writeInterval'
Courant Number mean: 0 max: 0
Interface Courant Number mean: 0 max: 0
deltaT = 0.00119048
Time = 0.00119048

PIMPLE: iteration 1
MULES: Solving for alpha.water
Phase-1 volume fraction = 0.672727  Min(alpha.water) = 0  Max(alpha.water) = 1
MULES: Solving for alpha.water
Phase-1 volume fraction = 0.672727  Min(alpha.water) = 0  Max(alpha.water) = 1
MULES: Solving for alpha.water
Phase-1 volume fraction = 0.672727  Min(alpha.water) = 0  Max(alpha.water) = 1
GAMG:  Solving for p_rgh, Initial residual = 1, Final residual = 0.000455153, No Iterations 1
time step continuity errors : sum local = 0.00154874, global = 7.20924e-19, cumulative = 7.20924e-19
GAMG:  Solving for p_rgh, Initial residual = 0.000227815, Final residual = 2.17783e-06, No Iterations 5
time step continuity errors : sum local = 1.48629e-05, global = -2.71141e-20, cumulative = 6.9381e-19
GAMG:  Solving for p_rgh, Initial residual = 2.57591e-06, Final residual = 9.72548e-09, No Iterations 46
time step continuity errors : sum local = 6.64468e-08, global = 8.90459e-20, cumulative = 7.82856e-19
ExecutionTime = 10.35 s  ClockTime = 11 s

Courant Number mean: 2.02376e-05 max: 0.000449498
Interface Courant Number mean: 0 max: 0
deltaT = 0.00141156
Time = 0.00260204

PIMPLE: iteration 1
MULES: Solving for alpha.water
Phase-1 volume fraction = 0.672727  Min(alpha.water) = 0  Max(alpha.water) = 1.0001
MULES: Solving for alpha.water
Phase-1 volume fraction = 0.672727  Min(alpha.water) = 0  Max(alpha.water) = 1.00019
MULES: Solving for alpha.water
Phase-1 volume fraction = 0.672727  Min(alpha.water) = 0  Max(alpha.water) = 1.00029
GAMG:  Solving for p_rgh, Initial residual = 5.77393e-07, Final residual = 8.9348e-09, No Iterations 6
time step continuity errors : sum local = 8.42005e-08, global = -7.17646e-20, cumulative = 7.11091e-19
GAMG:  Solving for p_rgh, Initial residual = 8.96016e-09, Final residual = 8.96016e-09, No Iterations 0
time step continuity errors : sum local = 8.42854e-08, global = 3.59002e-19, cumulative = 1.07009e-18
GAMG:  Solving for p_rgh, Initial residual = 8.96018e-09, Final residual = 8.96018e-09, No Iterations 0
time step continuity errors : sum local = 8.42856e-08, global = 3.58533e-19, cumulative = 1.42863e-18
ExecutionTime = 13.77 s  ClockTime = 14 s

Courant Number mean: 2.41455e-05 max: 0.00051125
Interface Courant Number mean: 0 max: 0
deltaT = 0.00167928
Time = 0.00428132

PIMPLE: iteration 1
MULES: Solving for alpha.water
Phase-1 volume fraction = 0.672727  Min(alpha.water) = 0  Max(alpha.water) = 1.00023
MULES: Solving for alpha.water
Phase-1 volume fraction = 0.672727  Min(alpha.water) = 0  Max(alpha.water) = 1.00017
MULES: Solving for alpha.water
Phase-1 volume fraction = 0.672727  Min(alpha.water) = 0  Max(alpha.water) = 1.00012
GAMG:  Solving for p_rgh, Initial residual = 1.40105e-06, Final residual = 8.54342e-09, No Iterations 3
time step continuity errors : sum local = 1.11554e-07, global = 1.91505e-19, cumulative = 1.62013e-18
GAMG:  Solving for p_rgh, Initial residual = 8.57115e-09, Final residual = 8.57115e-09, No Iterations 0
time step continuity errors : sum local = 1.1181e-07, global = 2.53094e-19, cumulative = 1.87323e-18
GAMG:  Solving for p_rgh, Initial residual = 8.57123e-09, Final residual = 8.57123e-09, No Iterations 0
time step continuity errors : sum local = 1.11811e-07, global = 2.53366e-19, cumulative = 2.12659e-18
ExecutionTime = 16.81 s  ClockTime = 17 s

Courant Number mean: 1.26067e-05 max: 0.000432238
Interface Courant Number mean: 0 max: 0
deltaT = 0.00199414
Time = 0.00627546

PIMPLE: iteration 1
MULES: Solving for alpha.water
Phase-1 volume fraction = 0.672727  Min(alpha.water) = 0  Max(alpha.water) = 1.00008
MULES: Solving for alpha.water
Phase-1 volume fraction = 0.672727  Min(alpha.water) = 0  Max(alpha.water) = 1.00004
MULES: Solving for alpha.water
Phase-1 volume fraction = 0.672727  Min(alpha.water) = 0  Max(alpha.water) = 1
GAMG:  Solving for p_rgh, Initial residual = 3.04322e-06, Final residual = 2.13321e-08, No Iterations 1
time step continuity errors : sum local = 3.83293e-07, global = -2.28849e-19, cumulative = 1.89774e-18
GAMG:  Solving for p_rgh, Initial residual = 2.14432e-08, Final residual = 5.68309e-09, No Iterations 2
time step continuity errors : sum local = 1.02148e-07, global = 5.38301e-20, cumulative = 1.95157e-18
GAMG:  Solving for p_rgh, Initial residual = 5.70221e-09, Final residual = 5.70221e-09, No Iterations 0
time step continuity errors : sum local = 1.02412e-07, global = 4.06176e-19, cumulative = 2.35775e-18
ExecutionTime = 20.04 s  ClockTime = 20 s

Courant Number mean: 1.70424e-05 max: 0.000620853
Interface Courant Number mean: 0 max: 0
deltaT = 0.00234311
Time = 0.00861857

PIMPLE: iteration 1
MULES: Solving for alpha.water
Phase-1 volume fraction = 0.672727  Min(alpha.water) = 0  Max(alpha.water) = 1
MULES: Solving for alpha.water
Phase-1 volume fraction = 0.672727  Min(alpha.water) = 0  Max(alpha.water) = 1
MULES: Solving for alpha.water
Phase-1 volume fraction = 0.672727  Min(alpha.water) = 0  Max(alpha.water) = 1
GAMG:  Solving for p_rgh, Initial residual = 4.23913e-06, Final residual = 2.17539e-08, No Iterations 1
time step continuity errors : sum local = 5.2565e-07, global = 4.36262e-19, cumulative = 2.79401e-18
GAMG:  Solving for p_rgh, Initial residual = 2.19083e-08, Final residual = 6.81384e-09, No Iterations 3
time step continuity errors : sum local = 1.64713e-07, global = 8.69024e-19, cumulative = 3.66303e-18
GAMG:  Solving for p_rgh, Initial residual = 6.92136e-09, Final residual = 6.92136e-09, No Iterations 0
time step continuity errors : sum local = 1.67229e-07, global = 2.77849e-19, cumulative = 3.94088e-18
ExecutionTime = 23.26 s  ClockTime = 24 s

Courant Number mean: 8.93079e-06 max: 0.00100545
Interface Courant Number mean: 0 max: 0
deltaT = 0.00276913
Time = 0.0113877

PIMPLE: iteration 1
MULES: Solving for alpha.water
Phase-1 volume fraction = 0.672727  Min(alpha.water) = 0  Max(alpha.water) = 1
MULES: Solving for alpha.water
Phase-1 volume fraction = 0.672727  Min(alpha.water) = 0  Max(alpha.water) = 1
MULES: Solving for alpha.water
Phase-1 volume fraction = 0.672727  Min(alpha.water) = 0  Max(alpha.water) = 1
GAMG:  Solving for p_rgh, Initial residual = 6.50981e-06, Final residual = 2.49094e-08, No Iterations 1
time step continuity errors : sum local = 8.15343e-07, global = 1.33765e-18, cumulative = 5.27853e-18
GAMG:  Solving for p_rgh, Initial residual = 2.51607e-08, Final residual = 6.22526e-09, No Iterations 1
time step continuity errors : sum local = 2.03965e-07, global = 1.82143e-18, cumulative = 7.09996e-18
GAMG:  Solving for p_rgh, Initial residual = 6.13263e-09, Final residual = 6.13263e-09, No Iterations 0
time step continuity errors : sum local = 2.00673e-07, global = 1.68181e-18, cumulative = 8.78177e-18
ExecutionTime = 26.26 s  ClockTime = 27 s

Courant Number mean: 2.67243e-05 max: 0.00173229
Interface Courant Number mean: 0 max: 0
deltaT = 0.00328194
Time = 0.0146696

PIMPLE: iteration 1
MULES: Solving for alpha.water
Phase-1 volume fraction = 0.672727  Min(alpha.water) = 0  Max(alpha.water) = 1.0001
MULES: Solving for alpha.water
Phase-1 volume fraction = 0.672727  Min(alpha.water) = 0  Max(alpha.water) = 1.00019
MULES: Solving for alpha.water
Phase-1 volume fraction = 0.672727  Min(alpha.water) = 0  Max(alpha.water) = 1.00029
GAMG:  Solving for p_rgh, Initial residual = 9.27511e-06, Final residual = 3.85065e-08, No Iterations 1
time step continuity errors : sum local = 1.70818e-06, global = 5.67353e-19, cumulative = 9.34912e-18
GAMG:  Solving for p_rgh, Initial residual = 3.89382e-08, Final residual = 4.99527e-09, No Iterations 3
time step continuity errors : sum local = 2.2193e-07, global = -9.48256e-20, cumulative = 9.2543e-18
GAMG:  Solving for p_rgh, Initial residual = 5.38702e-09, Final residual = 5.38702e-09, No Iterations 0
time step continuity errors : sum local = 2.38919e-07, global = 2.49088e-19, cumulative = 9.50339e-18
ExecutionTime = 29.56 s  ClockTime = 30 s

Courant Number mean: 2.43038e-05 max: 0.00278055
Interface Courant Number mean: 0 max: 0
deltaT = 0.00387865
Time = 0.0185483

PIMPLE: iteration 1
MULES: Solving for alpha.water
Phase-1 volume fraction = 0.672727  Min(alpha.water) = 0  Max(alpha.water) = 1.00042
MULES: Solving for alpha.water
Phase-1 volume fraction = 0.672727  Min(alpha.water) = 0  Max(alpha.water) = 1.00056
MULES: Solving for alpha.water
Phase-1 volume fraction = 0.672727  Min(alpha.water) = 0  Max(alpha.water) = 1.0007
GAMG:  Solving for p_rgh, Initial residual = 1.44169e-05, Final residual = 7.53659e-08, No Iterations 1
time step continuity errors : sum local = 4.48455e-06, global = 7.33091e-19, cumulative = 1.02365e-17
GAMG:  Solving for p_rgh, Initial residual = 7.61822e-08, Final residual = 5.60986e-09, No Iterations 2
time step continuity errors : sum local = 3.34262e-07, global = 6.25723e-19, cumulative = 1.08622e-17
GAMG:  Solving for p_rgh, Initial residual = 5.84739e-09, Final residual = 5.84739e-09, No Iterations 0
time step continuity errors : sum local = 3.47894e-07, global = -6.68828e-19, cumulative = 1.01934e-17
ExecutionTime = 32.74 s  ClockTime = 33 s

Courant Number mean: 3.25568e-05 max: 0.0165558
Interface Courant Number mean: 0 max: 0
deltaT = 0.00452509
Time = 0.0230734

PIMPLE: iteration 1
MULES: Solving for alpha.water
Phase-1 volume fraction = 0.672727  Min(alpha.water) = 0  Max(alpha.water) = 1.00088
MULES: Solving for alpha.water
Phase-1 volume fraction = 0.672727  Min(alpha.water) = 0  Max(alpha.water) = 1.00106
MULES: Solving for alpha.water
Phase-1 volume fraction = 0.672727  Min(alpha.water) = 0  Max(alpha.water) = 1.00124
GAMG:  Solving for p_rgh, Initial residual = 1.94004e-05, Final residual = 1.36999e-07, No Iterations 1
time step continuity errors : sum local = 1.06429e-05, global = -1.90618e-18, cumulative = 8.28719e-18
GAMG:  Solving for p_rgh, Initial residual = 1.3829e-07, Final residual = 5.01113e-09, No Iterations 3
time step continuity errors : sum local = 3.89797e-07, global = -5.84562e-18, cumulative = 2.44157e-18
GAMG:  Solving for p_rgh, Initial residual = 6.34276e-09, Final residual = 6.34276e-09, No Iterations 0
time step continuity errors : sum local = 4.92712e-07, global = -8.2139e-19, cumulative = 1.62018e-18
ExecutionTime = 35.91 s  ClockTime = 36 s

Courant Number mean: 5.12402e-05 max: 0.0270571
Interface Courant Number mean: 2.5909e-09 max: 0.00484244
deltaT = 0.00512844
Time = 0.0282018

PIMPLE: iteration 1
MULES: Solving for alpha.water
Phase-1 volume fraction = 0.672727  Min(alpha.water) = 0  Max(alpha.water) = 1.00142
MULES: Solving for alpha.water
Phase-1 volume fraction = 0.672727  Min(alpha.water) = 0  Max(alpha.water) = 1.0016
MULES: Solving for alpha.water
Phase-1 volume fraction = 0.672727  Min(alpha.water) = 0  Max(alpha.water) = 1.00178
GAMG:  Solving for p_rgh, Initial residual = 3.02321e-05, Final residual = 3.413e-08, No Iterations 2
time step continuity errors : sum local = 3.27991e-06, global = -3.99682e-18, cumulative = -2.37664e-18
GAMG:  Solving for p_rgh, Initial residual = 3.46942e-08, Final residual = 9.16614e-09, No Iterations 2
time step continuity errors : sum local = 8.8067e-07, global = 6.15499e-18, cumulative = 3.77835e-18
GAMG:  Solving for p_rgh, Initial residual = 9.6358e-09, Final residual = 9.6358e-09, No Iterations 0
time step continuity errors : sum local = 9.25587e-07, global = -2.74339e-18, cumulative = 1.03495e-18
ExecutionTime = 39.14 s  ClockTime = 39 s

Courant Number mean: 7.84928e-05 max: 0.0379277
Interface Courant Number mean: 1.60803e-08 max: 0.00693386
deltaT = 0.00598318
Time = 0.034185

PIMPLE: iteration 1
MULES: Solving for alpha.water
Phase-1 volume fraction = 0.672727  Min(alpha.water) = 0  Max(alpha.water) = 1.00171
MULES: Solving for alpha.water
Phase-1 volume fraction = 0.672727  Min(alpha.water) = 0  Max(alpha.water) = 1.00164
MULES: Solving for alpha.water
Phase-1 volume fraction = 0.672727  Min(alpha.water) = 0  Max(alpha.water) = 1.00157
GAMG:  Solving for p_rgh, Initial residual = 4.00316e-05, Final residual = 1.43613e-07, No Iterations 1
time step continuity errors : sum local = 1.78439e-05, global = -1.6672e-18, cumulative = -6.32244e-19
GAMG:  Solving for p_rgh, Initial residual = 1.46668e-07, Final residual = 8.29286e-09, No Iterations 3
time step continuity errors : sum local = 1.0304e-06, global = -3.97558e-18, cumulative = -4.60783e-18
GAMG:  Solving for p_rgh, Initial residual = 1.09988e-08, Final residual = 4.81606e-09, No Iterations 1
time step continuity errors : sum local = 5.98405e-07, global = -6.78273e-19, cumulative = -5.2861e-18
ExecutionTime = 42.55 s  ClockTime = 43 s

Courant Number mean: 7.04281e-05 max: 0.011729
Interface Courant Number mean: 4.6151e-08 max: 0.00928459
deltaT = 0.0065815
Time = 0.0407665

PIMPLE: iteration 1
MULES: Solving for alpha.water
Phase-1 volume fraction = 0.672727  Min(alpha.water) = 0  Max(alpha.water) = 1.00158
MULES: Solving for alpha.water
Phase-1 volume fraction = 0.672727  Min(alpha.water) = 0  Max(alpha.water) = 1.00159
MULES: Solving for alpha.water
Phase-1 volume fraction = 0.672727  Min(alpha.water) = 0  Max(alpha.water) = 1.00161
GAMG:  Solving for p_rgh, Initial residual = 5.15786e-05, Final residual = 1.35264e-07, No Iterations 1
time step continuity errors : sum local = 1.96406e-05, global = 4.08442e-18, cumulative = -1.20168e-18
GAMG:  Solving for p_rgh, Initial residual = 1.39218e-07, Final residual = 9.3383e-09, No Iterations 2
time step continuity errors : sum local = 1.35632e-06, global = 3.55565e-18, cumulative = 2.35397e-18
GAMG:  Solving for p_rgh, Initial residual = 1.07248e-08, Final residual = 4.07691e-09, No Iterations 1
time step continuity errors : sum local = 5.92477e-07, global = -1.70738e-18, cumulative = 6.46585e-19
ExecutionTime = 45.78 s  ClockTime = 46 s

Courant Number mean: 9.03016e-05 max: 0.0146666
Interface Courant Number mean: 9.49083e-08 max: 0.0136677
deltaT = 0.00740419
Time = 0.0481707

PIMPLE: iteration 1
MULES: Solving for alpha.water
Phase-1 volume fraction = 0.672727  Min(alpha.water) = 0  Max(alpha.water) = 1.00143
MULES: Solving for alpha.water
Phase-1 volume fraction = 0.672727  Min(alpha.water) = 0  Max(alpha.water) = 1.00125
MULES: Solving for alpha.water
Phase-1 volume fraction = 0.672727  Min(alpha.water) = 0  Max(alpha.water) = 1.00107
GAMG:  Solving for p_rgh, Initial residual = 6.22435e-05, Final residual = 1.15495e-07, No Iterations 1
time step continuity errors : sum local = 2.02989e-05, global = -2.03091e-18, cumulative = -1.38432e-18
GAMG:  Solving for p_rgh, Initial residual = 1.19908e-07, Final residual = 5.47532e-09, No Iterations 3
time step continuity errors : sum local = 9.63174e-07, global = -6.98362e-18, cumulative = -8.36794e-18
GAMG:  Solving for p_rgh, Initial residual = 9.08817e-09, Final residual = 9.08817e-09, No Iterations 0
time step continuity errors : sum local = 1.59716e-06, global = 1.92683e-18, cumulative = -6.44112e-18
ExecutionTime = 48.98 s  ClockTime = 49 s

Courant Number mean: 0.000155857 max: 0.044714
Interface Courant Number mean: 1.78584e-07 max: 0.0190619
deltaT = 0.00863822
Time = 0.0568089

PIMPLE: iteration 1
MULES: Solving for alpha.water
Phase-1 volume fraction = 0.672727  Min(alpha.water) = 0  Max(alpha.water) = 1.00073
MULES: Solving for alpha.water
Phase-1 volume fraction = 0.672727  Min(alpha.water) = 0  Max(alpha.water) = 1.00043
MULES: Solving for alpha.water
Phase-1 volume fraction = 0.672727  Min(alpha.water) = 0  Max(alpha.water) = 1.00041
GAMG:  Solving for p_rgh, Initial residual = 9.64936e-05, Final residual = 1.77043e-07, No Iterations 1
time step continuity errors : sum local = 3.97585e-05, global = 5.95605e-18, cumulative = -4.85071e-19
GAMG:  Solving for p_rgh, Initial residual = 1.86749e-07, Final residual = 8.9829e-09, No Iterations 3
time step continuity errors : sum local = 2.01845e-06, global = -1.33135e-17, cumulative = -1.37986e-17
GAMG:  Solving for p_rgh, Initial residual = 1.72644e-08, Final residual = 6.77519e-09, No Iterations 1
time step continuity errors : sum local = 1.52282e-06, global = -1.10661e-17, cumulative = -2.48647e-17
ExecutionTime = 52.35 s  ClockTime = 53 s

Courant Number mean: 0.000237143 max: 0.0273303
Interface Courant Number mean: 2.91043e-07 max: 0.0225583
deltaT = 0.00863822
Time = 0.0654471

PIMPLE: iteration 1
MULES: Solving for alpha.water
Phase-1 volume fraction = 0.672727  Min(alpha.water) = 0  Max(alpha.water) = 1.00041
MULES: Solving for alpha.water
Phase-1 volume fraction = 0.672727  Min(alpha.water) = 0  Max(alpha.water) = 1.00041
MULES: Solving for alpha.water
Phase-1 volume fraction = 0.672727  Min(alpha.water) = 0  Max(alpha.water) = 1.00041
GAMG:  Solving for p_rgh, Initial residual = 0.0001114, Final residual = 2.25778e-07, No Iterations 1
time step continuity errors : sum local = 5.062e-05, global = -9.60597e-18, cumulative = -3.44707e-17
GAMG:  Solving for p_rgh, Initial residual = 2.36215e-07, Final residual = 8.7151e-09, No Iterations 3
time step continuity errors : sum local = 1.9546e-06, global = -4.23996e-18, cumulative = -3.87107e-17
GAMG:  Solving for p_rgh, Initial residual = 1.74759e-08, Final residual = 5.69462e-09, No Iterations 1
time step continuity errors : sum local = 1.27752e-06, global = -1.75514e-17, cumulative = -5.62621e-17
ExecutionTime = 55.75 s  ClockTime = 56 s

Courant Number mean: 0.000271781 max: 0.0314131
Interface Courant Number mean: 3.69254e-07 max: 0.0247283
deltaT = 0.00863822
Time = 0.0740853

PIMPLE: iteration 1
MULES: Solving for alpha.water
Phase-1 volume fraction = 0.672727  Min(alpha.water) = 0  Max(alpha.water) = 1.00041
MULES: Solving for alpha.water
Phase-1 volume fraction = 0.672727  Min(alpha.water) = 0  Max(alpha.water) = 1.00041
MULES: Solving for alpha.water
Phase-1 volume fraction = 0.672727  Min(alpha.water) = 0  Max(alpha.water) = 1.00041
GAMG:  Solving for p_rgh, Initial residual = 0.000125425, Final residual = 2.44154e-07, No Iterations 1
time step continuity errors : sum local = 5.46484e-05, global = -1.45286e-17, cumulative = -7.07907e-17
GAMG:  Solving for p_rgh, Initial residual = 2.56211e-07, Final residual = 9.31588e-09, No Iterations 3
time step continuity errors : sum local = 2.08527e-06, global = -6.74741e-18, cumulative = -7.75381e-17
GAMG:  Solving for p_rgh, Initial residual = 1.95971e-08, Final residual = 7.30619e-09, No Iterations 1
time step continuity errors : sum local = 1.63547e-06, global = 2.43308e-18, cumulative = -7.5105e-17
ExecutionTime = 59.11 s  ClockTime = 59 s

Courant Number mean: 0.00028785 max: 0.0339853
Interface Courant Number mean: 4.50759e-07 max: 0.027411
deltaT = 0.00863822
Time = 0.0827236

PIMPLE: iteration 1
MULES: Solving for alpha.water
Phase-1 volume fraction = 0.672727  Min(alpha.water) = 0  Max(alpha.water) = 1.00044
MULES: Solving for alpha.water
Phase-1 volume fraction = 0.672727  Min(alpha.water) = 0  Max(alpha.water) = 1.00047
MULES: Solving for alpha.water
Phase-1 volume fraction = 0.672727  Min(alpha.water) = 0  Max(alpha.water) = 1.0005
GAMG:  Solving for p_rgh, Initial residual = 0.000137661, Final residual = 2.69435e-07, No Iterations 1
time step continuity errors : sum local = 6.02339e-05, global = 1.15237e-17, cumulative = -6.35813e-17
GAMG:  Solving for p_rgh, Initial residual = 2.82504e-07, Final residual = 9.39809e-09, No Iterations 3
time step continuity errors : sum local = 2.10115e-06, global = 8.54108e-18, cumulative = -5.50403e-17
GAMG:  Solving for p_rgh, Initial residual = 2.02736e-08, Final residual = 5.95529e-09, No Iterations 1
time step continuity errors : sum local = 1.33153e-06, global = 4.24825e-18, cumulative = -5.0792e-17
ExecutionTime = 62.41 s  ClockTime = 63 s

Courant Number mean: 0.000300007 max: 0.0379622
Interface Courant Number mean: 5.3452e-07 max: 0.0296469
deltaT = 0.00863822
Time = 0.0913618

PIMPLE: iteration 1
MULES: Solving for alpha.water
Phase-1 volume fraction = 0.672727  Min(alpha.water) = 0  Max(alpha.water) = 1.00053
MULES: Solving for alpha.water
Phase-1 volume fraction = 0.672727  Min(alpha.water) = 0  Max(alpha.water) = 1.00056
MULES: Solving for alpha.water
Phase-1 volume fraction = 0.672727  Min(alpha.water) = 0  Max(alpha.water) = 1.00059
GAMG:  Solving for p_rgh, Initial residual = 0.000154006, Final residual = 2.81644e-07, No Iterations 1
time step continuity errors : sum local = 6.28943e-05, global = 2.37519e-18, cumulative = -4.84168e-17
GAMG:  Solving for p_rgh, Initial residual = 2.96471e-07, Final residual = 7.15871e-09, No Iterations 4
time step continuity errors : sum local = 1.59888e-06, global = 5.51364e-18, cumulative = -4.29032e-17
GAMG:  Solving for p_rgh, Initial residual = 2.09636e-08, Final residual = 8.10036e-09, No Iterations 1
time step continuity errors : sum local = 1.80925e-06, global = 6.32008e-18, cumulative = -3.65831e-17
ExecutionTime = 65.82 s  ClockTime = 66 s

Courant Number mean: 0.000258992 max: 0.0343317
Interface Courant Number mean: 5.89895e-07 max: 0.0293404
deltaT = 0.00863822
Time = 0.1

PIMPLE: iteration 1
MULES: Solving for alpha.water
Phase-1 volume fraction = 0.672727  Min(alpha.water) = 0  Max(alpha.water) = 1.00059
MULES: Solving for alpha.water
Phase-1 volume fraction = 0.672727  Min(alpha.water) = 0  Max(alpha.water) = 1.0006
MULES: Solving for alpha.water
Phase-1 volume fraction = 0.672727  Min(alpha.water) = 0  Max(alpha.water) = 1.0006
GAMG:  Solving for p_rgh, Initial residual = 0.0001688, Final residual = 3.52417e-07, No Iterations 1
time step continuity errors : sum local = 7.85994e-05, global = 1.07395e-17, cumulative = -2.58436e-17
GAMG:  Solving for p_rgh, Initial residual = 3.70075e-07, Final residual = 5.18971e-09, No Iterations 4
time step continuity errors : sum local = 1.15784e-06, global = 7.33928e-18, cumulative = -1.85044e-17
GAMG:  Solving for p_rgh, Initial residual = 2.20218e-08, Final residual = 4.77195e-09, No Iterations 1
time step continuity errors : sum local = 1.06466e-06, global = -2.92255e-18, cumulative = -2.14269e-17
ExecutionTime = 70.6 s  ClockTime = 71 s

Courant Number mean: 0.000251322 max: 0.040835
Interface Courant Number mean: 6.72145e-07 max: 0.0316943
deltaT = 0.01
Time = 0.11

PIMPLE: iteration 1
MULES: Solving for alpha.water
Phase-1 volume fraction = 0.672727  Min(alpha.water) = 0  Max(alpha.water) = 1.00061
MULES: Solving for alpha.water
Phase-1 volume fraction = 0.672727  Min(alpha.water) = 0  Max(alpha.water) = 1.00062
MULES: Solving for alpha.water
Phase-1 volume fraction = 0.672727  Min(alpha.water) = 0  Max(alpha.water) = 1.00062
GAMG:  Solving for p_rgh, Initial residual = 0.000215149, Final residual = 4.10914e-07, No Iterations 1
time step continuity errors : sum local = 0.000115145, global = -6.25609e-18, cumulative = -2.7683e-17
GAMG:  Solving for p_rgh, Initial residual = 4.37492e-07, Final residual = 7.65882e-09, No Iterations 4
time step continuity errors : sum local = 2.14651e-06, global = -2.74565e-18, cumulative = -3.04286e-17
GAMG:  Solving for p_rgh, Initial residual = 3.2935e-08, Final residual = 7.14417e-09, No Iterations 1
time step continuity errors : sum local = 2.00232e-06, global = -7.05114e-18, cumulative = -3.74798e-17
ExecutionTime = 74.06 s  ClockTime = 74 s

Courant Number mean: 0.000331939 max: 0.062881
Interface Courant Number mean: 8.85165e-07 max: 0.0381028
deltaT = 0.01125
Time = 0.12125

PIMPLE: iteration 1
MULES: Solving for alpha.water
Phase-1 volume fraction = 0.672727  Min(alpha.water) = 0  Max(alpha.water) = 1.00063
MULES: Solving for alpha.water
Phase-1 volume fraction = 0.672727  Min(alpha.water) = 0  Max(alpha.water) = 1.00063
MULES: Solving for alpha.water
Phase-1 volume fraction = 0.672727  Min(alpha.water) = 0  Max(alpha.water) = 1.00064
GAMG:  Solving for p_rgh, Initial residual = 0.000272104, Final residual = 5.38414e-07, No Iterations 1
time step continuity errors : sum local = 0.000180573, global = 1.55767e-17, cumulative = -2.19031e-17
GAMG:  Solving for p_rgh, Initial residual = 5.77574e-07, Final residual = 8.74995e-09, No Iterations 4
time step continuity errors : sum local = 2.93513e-06, global = 2.12473e-18, cumulative = -1.97783e-17
GAMG:  Solving for p_rgh, Initial residual = 4.73512e-08, Final residual = 9.27112e-09, No Iterations 1
time step continuity errors : sum local = 3.11001e-06, global = -4.16416e-19, cumulative = -2.01947e-17
ExecutionTime = 78.77 s  ClockTime = 79 s

Courant Number mean: 0.00044562 max: 0.0879225
Interface Courant Number mean: 1.13859e-06 max: 0.0445594
deltaT = 0.013125
Time = 0.134375

PIMPLE: iteration 1
MULES: Solving for alpha.water
Phase-1 volume fraction = 0.672727  Min(alpha.water) = 0  Max(alpha.water) = 1.00065
MULES: Solving for alpha.water
Phase-1 volume fraction = 0.672727  Min(alpha.water) = 0  Max(alpha.water) = 1.00065
MULES: Solving for alpha.water
Phase-1 volume fraction = 0.672727  Min(alpha.water) = 0  Max(alpha.water) = 1.00067
GAMG:  Solving for p_rgh, Initial residual = 0.000361907, Final residual = 6.87896e-07, No Iterations 1
time step continuity errors : sum local = 0.000290473, global = 6.40857e-18, cumulative = -1.37862e-17
GAMG:  Solving for p_rgh, Initial residual = 7.52334e-07, Final residual = 6.91202e-09, No Iterations 6
time step continuity errors : sum local = 2.91984e-06, global = 1.12941e-17, cumulative = -2.49212e-18
GAMG:  Solving for p_rgh, Initial residual = 7.3904e-08, Final residual = 4.0239e-09, No Iterations 2
time step continuity errors : sum local = 1.70148e-06, global = 7.31871e-18, cumulative = 4.8266e-18
ExecutionTime = 82.55 s  ClockTime = 83 s

Courant Number mean: 0.000498182 max: 0.0654705
Interface Courant Number mean: 1.43764e-06 max: 0.057215
deltaT = 0.013125
Time = 0.1475

PIMPLE: iteration 1
MULES: Solving for alpha.water
Phase-1 volume fraction = 0.672727  Min(alpha.water) = 0  Max(alpha.water) = 1.00063
MULES: Solving for alpha.water
Phase-1 volume fraction = 0.672727  Min(alpha.water) = 0  Max(alpha.water) = 1.00134
MULES: Solving for alpha.water
Phase-1 volume fraction = 0.672727  Min(alpha.water) = 0  Max(alpha.water) = 1.00205
GAMG:  Solving for p_rgh, Initial residual = 0.000398155, Final residual = 8.56455e-07, No Iterations 1
time step continuity errors : sum local = 0.000361221, global = 1.57728e-18, cumulative = 6.40388e-18
GAMG:  Solving for p_rgh, Initial residual = 9.26453e-07, Final residual = 9.57895e-09, No Iterations 4
time step continuity errors : sum local = 4.04357e-06, global = -1.14149e-17, cumulative = -5.01102e-18
GAMG:  Solving for p_rgh, Initial residual = 7.83794e-08, Final residual = 5.21812e-09, No Iterations 2
time step continuity errors : sum local = 2.20621e-06, global = 1.56947e-17, cumulative = 1.06837e-17
ExecutionTime = 86.14 s  ClockTime = 86 s

Courant Number mean: 0.000534084 max: 0.0726647
Interface Courant Number mean: 1.65221e-06 max: 0.0579329
deltaT = 0.013125
Time = 0.160625

PIMPLE: iteration 1
MULES: Solving for alpha.water
Phase-1 volume fraction = 0.672727  Min(alpha.water) = 0  Max(alpha.water) = 1.00056
MULES: Solving for alpha.water
Phase-1 volume fraction = 0.672727  Min(alpha.water) = -1.13635e-322  Max(alpha.water) = 1.00058
MULES: Solving for alpha.water
Phase-1 volume fraction = 0.672727  Min(alpha.water) = 0  Max(alpha.water) = 1.0006
GAMG:  Solving for p_rgh, Initial residual = 0.000423783, Final residual = 7.81657e-07, No Iterations 1
time step continuity errors : sum local = 0.000329492, global = 7.98551e-18, cumulative = 1.86692e-17
GAMG:  Solving for p_rgh, Initial residual = 8.50477e-07, Final residual = 9.75529e-09, No Iterations 5
time step continuity errors : sum local = 4.11916e-06, global = -1.13985e-17, cumulative = 7.27074e-18
GAMG:  Solving for p_rgh, Initial residual = 7.84028e-08, Final residual = 6.05568e-09, No Iterations 2
time step continuity errors : sum local = 2.57627e-06, global = 1.7398e-18, cumulative = 9.01054e-18
ExecutionTime = 89.78 s  ClockTime = 90 s

Courant Number mean: 0.000640406 max: 0.0711959
Interface Courant Number mean: 1.80231e-06 max: 0.0596736
deltaT = 0.013125
Time = 0.17375

PIMPLE: iteration 1
MULES: Solving for alpha.water
Phase-1 volume fraction = 0.672727  Min(alpha.water) = 0  Max(alpha.water) = 1.00444
MULES: Solving for alpha.water
Phase-1 volume fraction = 0.672727  Min(alpha.water) = 0  Max(alpha.water) = 1.01168
MULES: Solving for alpha.water
Phase-1 volume fraction = 0.672727  Min(alpha.water) = 0  Max(alpha.water) = 1.01889
GAMG:  Solving for p_rgh, Initial residual = 0.000464668, Final residual = 9.39294e-07, No Iterations 1
time step continuity errors : sum local = 0.000395564, global = -3.01587e-17, cumulative = -2.11482e-17
GAMG:  Solving for p_rgh, Initial residual = 1.01726e-06, Final residual = 9.0133e-09, No Iterations 5
time step continuity errors : sum local = 3.82396e-06, global = -2.34602e-18, cumulative = -2.34942e-17
GAMG:  Solving for p_rgh, Initial residual = 8.81789e-08, Final residual = 8.12202e-09, No Iterations 2
time step continuity errors : sum local = 3.42736e-06, global = 1.64063e-17, cumulative = -7.08788e-18
ExecutionTime = 93.42 s  ClockTime = 94 s

Courant Number mean: 0.000762766 max: 0.0850984
Interface Courant Number mean: 2.00018e-06 max: 0.0617363
deltaT = 0.013125
Time = 0.186875

PIMPLE: iteration 1
MULES: Solving for alpha.water
Phase-1 volume fraction = 0.672727  Min(alpha.water) = 0  Max(alpha.water) = 1.01658
MULES: Solving for alpha.water
Phase-1 volume fraction = 0.672727  Min(alpha.water) = 0  Max(alpha.water) = 1.01429
MULES: Solving for alpha.water
Phase-1 volume fraction = 0.672727  Min(alpha.water) = 0  Max(alpha.water) = 1.01201
GAMG:  Solving for p_rgh, Initial residual = 0.000494562, Final residual = 9.30429e-07, No Iterations 1
time step continuity errors : sum local = 0.000391545, global = 1.48626e-17, cumulative = 7.77472e-18
GAMG:  Solving for p_rgh, Initial residual = 1.01432e-06, Final residual = 9.48603e-09, No Iterations 6
time step continuity errors : sum local = 4.00609e-06, global = 3.09369e-17, cumulative = 3.87116e-17
GAMG:  Solving for p_rgh, Initial residual = 9.59698e-08, Final residual = 5.65573e-09, No Iterations 2
time step continuity errors : sum local = 2.3837e-06, global = 1.83e-17, cumulative = 5.70116e-17
ExecutionTime = 97.15 s  ClockTime = 98 s

Courant Number mean: 0.00070612 max: 0.0758551
Interface Courant Number mean: 2.11122e-06 max: 0.065644
deltaT = 0.013125
Time = 0.2

PIMPLE: iteration 1
MULES: Solving for alpha.water
Phase-1 volume fraction = 0.672727  Min(alpha.water) = 0  Max(alpha.water) = 1.01315
MULES: Solving for alpha.water
Phase-1 volume fraction = 0.672727  Min(alpha.water) = 0  Max(alpha.water) = 1.0143
MULES: Solving for alpha.water
Phase-1 volume fraction = 0.672727  Min(alpha.water) = 0  Max(alpha.water) = 1.01544
GAMG:  Solving for p_rgh, Initial residual = 0.000519509, Final residual = 1.07686e-06, No Iterations 1
time step continuity errors : sum local = 0.000452142, global = 2.11168e-17, cumulative = 7.81284e-17
GAMG:  Solving for p_rgh, Initial residual = 1.16895e-06, Final residual = 6.71061e-09, No Iterations 5
time step continuity errors : sum local = 2.81898e-06, global = 4.517e-18, cumulative = 8.26454e-17
GAMG:  Solving for p_rgh, Initial residual = 1.0186e-07, Final residual = 6.15774e-09, No Iterations 2
time step continuity errors : sum local = 2.58729e-06, global = 1.83753e-17, cumulative = 1.01021e-16
ExecutionTime = 101.98 s  ClockTime = 102 s

Courant Number mean: 0.000726628 max: 0.0814615
Interface Courant Number mean: 2.32879e-06 max: 0.064843
deltaT = 0.0142857
Time = 0.214286

PIMPLE: iteration 1
MULES: Solving for alpha.water
Phase-1 volume fraction = 0.672727  Min(alpha.water) = 0  Max(alpha.water) = 1.01487
MULES: Solving for alpha.water
Phase-1 volume fraction = 0.672727  Min(alpha.water) = 0  Max(alpha.water) = 1.01429
MULES: Solving for alpha.water
Phase-1 volume fraction = 0.672727  Min(alpha.water) = 0  Max(alpha.water) = 1.01372
GAMG:  Solving for p_rgh, Initial residual = 0.000589991, Final residual = 1.06149e-06, No Iterations 1
time step continuity errors : sum local = 0.000504483, global = 3.69953e-17, cumulative = 1.38016e-16
GAMG:  Solving for p_rgh, Initial residual = 1.1664e-06, Final residual = 8.22767e-09, No Iterations 6
time step continuity errors : sum local = 3.91157e-06, global = 8.76209e-19, cumulative = 1.38892e-16
GAMG:  Solving for p_rgh, Initial residual = 1.1683e-07, Final residual = 6.29598e-09, No Iterations 2
time step continuity errors : sum local = 2.99835e-06, global = -4.49986e-19, cumulative = 1.38442e-16
ExecutionTime = 105.74 s  ClockTime = 106 s

Courant Number mean: 0.000835194 max: 0.0840363
Interface Courant Number mean: 2.75572e-06 max: 0.0718846
deltaT = 0.0171429
Time = 0.231429

PIMPLE: iteration 1
MULES: Solving for alpha.water
Phase-1 volume fraction = 0.672727  Min(alpha.water) = 0  Max(alpha.water) = 1.01594
MULES: Solving for alpha.water
Phase-1 volume fraction = 0.672727  Min(alpha.water) = 0  Max(alpha.water) = 1.01817
MULES: Solving for alpha.water
Phase-1 volume fraction = 0.672727  Min(alpha.water) = -3.41399e-321  Max(alpha.water) = 1.02038
GAMG:  Solving for p_rgh, Initial residual = 0.000754505, Final residual = 1.46739e-06, No Iterations 1
time step continuity errors : sum local = 0.000905722, global = 4.07275e-17, cumulative = 1.7917e-16
GAMG:  Solving for p_rgh, Initial residual = 1.62446e-06, Final residual = 1.22284e-08, No Iterations 5
time step continuity errors : sum local = 7.56326e-06, global = 2.6688e-17, cumulative = 2.05858e-16
GAMG:  Solving for p_rgh, Initial residual = 1.74344e-07, Final residual = 7.26865e-09, No Iterations 3
time step continuity errors : sum local = 4.51186e-06, global = -7.51727e-18, cumulative = 1.9834e-16
ExecutionTime = 109.53 s  ClockTime = 110 s

Courant Number mean: 0.00121659 max: 0.133688
Interface Courant Number mean: 3.9134e-06 max: 0.0950971
deltaT = 0.0171429
Time = 0.248571

PIMPLE: iteration 1
MULES: Solving for alpha.water
Phase-1 volume fraction = 0.672727  Min(alpha.water) = -3.41399e-321  Max(alpha.water) = 1.02805
MULES: Solving for alpha.water
Phase-1 volume fraction = 0.672727  Min(alpha.water) = -3.41399e-321  Max(alpha.water) = 1.03571
MULES: Solving for alpha.water
Phase-1 volume fraction = 0.672727  Min(alpha.water) = -3.41399e-321  Max(alpha.water) = 1.04335
GAMG:  Solving for p_rgh, Initial residual = 0.000796213, Final residual = 1.37929e-06, No Iterations 1
time step continuity errors : sum local = 0.000850661, global = -1.57625e-17, cumulative = 1.82578e-16
GAMG:  Solving for p_rgh, Initial residual = 1.5348e-06, Final residual = 1.29054e-08, No Iterations 6
time step continuity errors : sum local = 7.99114e-06, global = -1.21683e-17, cumulative = 1.7041e-16
GAMG:  Solving for p_rgh, Initial residual = 1.73664e-07, Final residual = 6.12134e-09, No Iterations 3
time step continuity errors : sum local = 3.80526e-06, global = -2.14803e-17, cumulative = 1.48929e-16
ExecutionTime = 113.43 s  ClockTime = 114 s

Courant Number mean: 0.00133753 max: 0.111994
Interface Courant Number mean: 4.27406e-06 max: 0.0985771
deltaT = 0.0171429
Time = 0.265714

PIMPLE: iteration 1
MULES: Solving for alpha.water
Phase-1 volume fraction = 0.672727  Min(alpha.water) = -3.41399e-321  Max(alpha.water) = 1.05251
MULES: Solving for alpha.water
Phase-1 volume fraction = 0.672727  Min(alpha.water) = -3.41399e-321  Max(alpha.water) = 1.06166
MULES: Solving for alpha.water
Phase-1 volume fraction = 0.672727  Min(alpha.water) = -3.41399e-321  Max(alpha.water) = 1.07078
GAMG:  Solving for p_rgh, Initial residual = 0.000822218, Final residual = 1.54021e-06, No Iterations 1
time step continuity errors : sum local = 0.000948922, global = 5.89329e-18, cumulative = 1.54823e-16
GAMG:  Solving for p_rgh, Initial residual = 1.70578e-06, Final residual = 1.36987e-08, No Iterations 5
time step continuity errors : sum local = 8.44302e-06, global = -2.41196e-17, cumulative = 1.30703e-16
GAMG:  Solving for p_rgh, Initial residual = 1.84041e-07, Final residual = 6.63485e-09, No Iterations 3
time step continuity errors : sum local = 4.1233e-06, global = -1.81267e-17, cumulative = 1.12576e-16
ExecutionTime = 117.19 s  ClockTime = 118 s

Courant Number mean: 0.00147144 max: 0.140178
Interface Courant Number mean: 4.81784e-06 max: 0.0962191
deltaT = 0.0171429
Time = 0.282857

PIMPLE: iteration 1
MULES: Solving for alpha.water
Phase-1 volume fraction = 0.672727  Min(alpha.water) = -3.41399e-321  Max(alpha.water) = 1.05906
MULES: Solving for alpha.water
Phase-1 volume fraction = 0.672727  Min(alpha.water) = 0  Max(alpha.water) = 1.04747
MULES: Solving for alpha.water
Phase-1 volume fraction = 0.672727  Min(alpha.water) = 0  Max(alpha.water) = 1.036
GAMG:  Solving for p_rgh, Initial residual = 0.000861376, Final residual = 1.38558e-06, No Iterations 1
time step continuity errors : sum local = 0.000853532, global = 4.08969e-17, cumulative = 1.53473e-16
GAMG:  Solving for p_rgh, Initial residual = 1.54443e-06, Final residual = 1.3057e-08, No Iterations 6
time step continuity errors : sum local = 8.05275e-06, global = -3.2329e-17, cumulative = 1.21144e-16
GAMG:  Solving for p_rgh, Initial residual = 1.7668e-07, Final residual = 6.41364e-09, No Iterations 3
time step continuity errors : sum local = 3.97705e-06, global = -4.51199e-17, cumulative = 7.60241e-17
ExecutionTime = 121.02 s  ClockTime = 121 s

Courant Number mean: 0.00153575 max: 0.122452
Interface Courant Number mean: 5.22802e-06 max: 0.0989123
deltaT = 0.0171429
Time = 0.3

PIMPLE: iteration 1
MULES: Solving for alpha.water
Phase-1 volume fraction = 0.672727  Min(alpha.water) = 0  Max(alpha.water) = 1.04419
MULES: Solving for alpha.water
Phase-1 volume fraction = 0.672727  Min(alpha.water) = 0  Max(alpha.water) = 1.05236
MULES: Solving for alpha.water
Phase-1 volume fraction = 0.672727  Min(alpha.water) = 0  Max(alpha.water) = 1.06051
GAMG:  Solving for p_rgh, Initial residual = 0.000884044, Final residual = 1.53066e-06, No Iterations 1
time step continuity errors : sum local = 0.000941755, global = -4.94916e-17, cumulative = 2.65325e-17
GAMG:  Solving for p_rgh, Initial residual = 1.69771e-06, Final residual = 1.64311e-08, No Iterations 5
time step continuity errors : sum local = 1.01781e-05, global = 2.99131e-18, cumulative = 2.95238e-17
GAMG:  Solving for p_rgh, Initial residual = 1.8788e-07, Final residual = 9.82578e-09, No Iterations 3
time step continuity errors : sum local = 6.09267e-06, global = -2.05767e-17, cumulative = 8.94712e-18
ExecutionTime = 125.93 s  ClockTime = 126 s

Courant Number mean: 0.00172721 max: 0.166409
Interface Courant Number mean: 5.87143e-06 max: 0.0982785
deltaT = 0.02
Time = 0.32

PIMPLE: iteration 1
MULES: Solving for alpha.water
Phase-1 volume fraction = 0.672727  Min(alpha.water) = 0  Max(alpha.water) = 1.07744
MULES: Solving for alpha.water
Phase-1 volume fraction = 0.672727  Min(alpha.water) = 0  Max(alpha.water) = 1.09436
MULES: Solving for alpha.water
Phase-1 volume fraction = 0.672727  Min(alpha.water) = 0  Max(alpha.water) = 1.11127
GAMG:  Solving for p_rgh, Initial residual = 0.00112421, Final residual = 1.69559e-06, No Iterations 1
time step continuity errors : sum local = 0.00129382, global = -5.42861e-17, cumulative = -4.5339e-17
GAMG:  Solving for p_rgh, Initial residual = 1.92403e-06, Final residual = 7.79292e-09, No Iterations 9
time step continuity errors : sum local = 5.98707e-06, global = 4.59868e-17, cumulative = 6.47839e-19
GAMG:  Solving for p_rgh, Initial residual = 2.47589e-07, Final residual = 5.88813e-09, No Iterations 3
time step continuity errors : sum local = 4.50048e-06, global = 4.00479e-17, cumulative = 4.06958e-17
ExecutionTime = 130.08 s  ClockTime = 130 s

Courant Number mean: 0.00193717 max: 0.141771
Interface Courant Number mean: 7.32649e-06 max: 0.118208
deltaT = 0.02
Time = 0.34

PIMPLE: iteration 1
MULES: Solving for alpha.water
Phase-1 volume fraction = 0.672727  Min(alpha.water) = 0  Max(alpha.water) = 1.11291
MULES: Solving for alpha.water
Phase-1 volume fraction = 0.672727  Min(alpha.water) = 0  Max(alpha.water) = 1.11453
MULES: Solving for alpha.water
Phase-1 volume fraction = 0.672727  Min(alpha.water) = 0  Max(alpha.water) = 1.11614
GAMG:  Solving for p_rgh, Initial residual = 0.00114811, Final residual = 1.91512e-06, No Iterations 1
time step continuity errors : sum local = 0.00145982, global = -2.50332e-17, cumulative = 1.56625e-17
GAMG:  Solving for p_rgh, Initial residual = 2.16145e-06, Final residual = 1.69507e-08, No Iterations 5
time step continuity errors : sum local = 1.29299e-05, global = -5.59508e-17, cumulative = -4.02883e-17
GAMG:  Solving for p_rgh, Initial residual = 2.70399e-07, Final residual = 8.71717e-09, No Iterations 3
time step continuity errors : sum local = 6.68723e-06, global = -2.31698e-17, cumulative = -6.34581e-17
ExecutionTime = 133.87 s  ClockTime = 134 s

Courant Number mean: 0.00208512 max: 0.194067
Interface Courant Number mean: 8.16928e-06 max: 0.11367
deltaT = 0.02
Time = 0.36

PIMPLE: iteration 1
MULES: Solving for alpha.water
Phase-1 volume fraction = 0.672727  Min(alpha.water) = 0  Max(alpha.water) = 1.12794
MULES: Solving for alpha.water
Phase-1 volume fraction = 0.672727  Min(alpha.water) = -2.41104e-321  Max(alpha.water) = 1.13963
MULES: Solving for alpha.water
Phase-1 volume fraction = 0.672727  Min(alpha.water) = -2.41104e-321  Max(alpha.water) = 1.15122
GAMG:  Solving for p_rgh, Initial residual = 0.00121958, Final residual = 1.73807e-06, No Iterations 1
time step continuity errors : sum local = 0.00132385, global = -4.38988e-18, cumulative = -6.78479e-17
GAMG:  Solving for p_rgh, Initial residual = 1.9714e-06, Final residual = 1.66567e-08, No Iterations 6
time step continuity errors : sum local = 1.27482e-05, global = 1.08574e-17, cumulative = -5.69905e-17
GAMG:  Solving for p_rgh, Initial residual = 2.56847e-07, Final residual = 8.43167e-09, No Iterations 3
time step continuity errors : sum local = 6.47188e-06, global = 1.6485e-17, cumulative = -4.05055e-17
ExecutionTime = 137.74 s  ClockTime = 138 s

Courant Number mean: 0.00249874 max: 0.182267
Interface Courant Number mean: 8.67323e-06 max: 0.118673
deltaT = 0.02
Time = 0.38

PIMPLE: iteration 1
MULES: Solving for alpha.water
Phase-1 volume fraction = 0.672727  Min(alpha.water) = 0  Max(alpha.water) = 1.16493
MULES: Solving for alpha.water
Phase-1 volume fraction = 0.672727  Min(alpha.water) = 0  Max(alpha.water) = 1.17847
MULES: Solving for alpha.water
Phase-1 volume fraction = 0.672727  Min(alpha.water) = 0  Max(alpha.water) = 1.19186
GAMG:  Solving for p_rgh, Initial residual = 0.0012434, Final residual = 1.97041e-06, No Iterations 1
time step continuity errors : sum local = 0.00149862, global = 7.45999e-17, cumulative = 3.40944e-17
GAMG:  Solving for p_rgh, Initial residual = 2.23013e-06, Final residual = 1.81928e-08, No Iterations 6
time step continuity errors : sum local = 1.39015e-05, global = -2.80892e-17, cumulative = 6.00517e-18
GAMG:  Solving for p_rgh, Initial residual = 2.84373e-07, Final residual = 9.25677e-09, No Iterations 6
time step continuity errors : sum local = 7.0625e-06, global = 5.20422e-17, cumulative = 5.80474e-17
ExecutionTime = 141.92 s  ClockTime = 143 s

Courant Number mean: 0.00281223 max: 0.246805
Interface Courant Number mean: 9.49367e-06 max: 0.116258
deltaT = 0.02
Time = 0.4

PIMPLE: iteration 1
MULES: Solving for alpha.water
Phase-1 volume fraction = 0.672727  Min(alpha.water) = 0  Max(alpha.water) = 1.18041
MULES: Solving for alpha.water
Phase-1 volume fraction = 0.672727  Min(alpha.water) = 0  Max(alpha.water) = 1.16923
MULES: Solving for alpha.water
Phase-1 volume fraction = 0.672727  Min(alpha.water) = 0  Max(alpha.water) = 1.15833
GAMG:  Solving for p_rgh, Initial residual = 0.00130315, Final residual = 1.78749e-06, No Iterations 1
time step continuity errors : sum local = 0.00135821, global = 7.40017e-17, cumulative = 1.32049e-16
GAMG:  Solving for p_rgh, Initial residual = 2.03481e-06, Final residual = 1.14867e-08, No Iterations 7
time step continuity errors : sum local = 8.73021e-06, global = 6.11875e-17, cumulative = 1.93237e-16
GAMG:  Solving for p_rgh, Initial residual = 2.6933e-07, Final residual = 6.69037e-09, No Iterations 3
time step continuity errors : sum local = 5.08803e-06, global = 1.00805e-16, cumulative = 2.94041e-16
ExecutionTime = 147.18 s  ClockTime = 148 s

Courant Number mean: 0.00228472 max: 0.196243
Interface Courant Number mean: 9.79306e-06 max: 0.116892
deltaT = 0.02
Time = 0.42

PIMPLE: iteration 1
MULES: Solving for alpha.water
Phase-1 volume fraction = 0.672727  Min(alpha.water) = 0  Max(alpha.water) = 1.15621
MULES: Solving for alpha.water
Phase-1 volume fraction = 0.672727  Min(alpha.water) = 0  Max(alpha.water) = 1.15415
MULES: Solving for alpha.water
Phase-1 volume fraction = 0.672727  Min(alpha.water) = 0  Max(alpha.water) = 1.15213
GAMG:  Solving for p_rgh, Initial residual = 0.0013273, Final residual = 2.04089e-06, No Iterations 1
time step continuity errors : sum local = 0.00154436, global = 5.91246e-17, cumulative = 3.53166e-16
GAMG:  Solving for p_rgh, Initial residual = 2.31406e-06, Final residual = 1.7591e-08, No Iterations 5
time step continuity errors : sum local = 1.33136e-05, global = 5.71578e-17, cumulative = 4.10324e-16
GAMG:  Solving for p_rgh, Initial residual = 2.96087e-07, Final residual = 9.32691e-09, No Iterations 3
time step continuity errors : sum local = 7.06089e-06, global = 5.74734e-17, cumulative = 4.67797e-16
ExecutionTime = 151.32 s  ClockTime = 152 s

Courant Number mean: 0.00224938 max: 0.248341
Interface Courant Number mean: 1.01727e-05 max: 0.1181
deltaT = 0.02
Time = 0.44

PIMPLE: iteration 1
MULES: Solving for alpha.water
Phase-1 volume fraction = 0.672727  Min(alpha.water) = 0  Max(alpha.water) = 1.14744
MULES: Solving for alpha.water
Phase-1 volume fraction = 0.672727  Min(alpha.water) = 0  Max(alpha.water) = 1.14288
MULES: Solving for alpha.water
Phase-1 volume fraction = 0.672727  Min(alpha.water) = 0  Max(alpha.water) = 1.13843
GAMG:  Solving for p_rgh, Initial residual = 0.00136794, Final residual = 1.92972e-06, No Iterations 1
time step continuity errors : sum local = 0.00145895, global = 1.06806e-16, cumulative = 5.74603e-16
GAMG:  Solving for p_rgh, Initial residual = 2.19691e-06, Final residual = 1.71084e-08, No Iterations 6
time step continuity errors : sum local = 1.29567e-05, global = 1.36146e-16, cumulative = 7.1075e-16
GAMG:  Solving for p_rgh, Initial residual = 2.9256e-07, Final residual = 6.6345e-09, No Iterations 3
time step continuity errors : sum local = 5.05118e-06, global = 6.1234e-17, cumulative = 7.71984e-16
ExecutionTime = 155.09 s  ClockTime = 156 s

Courant Number mean: 0.00250702 max: 0.248024
Interface Courant Number mean: 1.03391e-05 max: 0.116277
deltaT = 0.02
Time = 0.46

PIMPLE: iteration 1
MULES: Solving for alpha.water
Phase-1 volume fraction = 0.672727  Min(alpha.water) = 0  Max(alpha.water) = 1.12288
MULES: Solving for alpha.water
Phase-1 volume fraction = 0.672727  Min(alpha.water) = -4.94066e-324  Max(alpha.water) = 1.10787
MULES: Solving for alpha.water
Phase-1 volume fraction = 0.672727  Min(alpha.water) = -4.94066e-324  Max(alpha.water) = 1.09336
GAMG:  Solving for p_rgh, Initial residual = 0.0013923, Final residual = 2.2646e-06, No Iterations 1
time step continuity errors : sum local = 0.00170921, global = -4.61218e-17, cumulative = 7.25862e-16
GAMG:  Solving for p_rgh, Initial residual = 2.59115e-06, Final residual = 1.81472e-08, No Iterations 5
time step continuity errors : sum local = 1.37226e-05, global = 4.41654e-17, cumulative = 7.70027e-16
GAMG:  Solving for p_rgh, Initial residual = 3.48407e-07, Final residual = 9.26641e-09, No Iterations 4
time step continuity errors : sum local = 7.02065e-06, global = -2.62788e-17, cumulative = 7.43748e-16
ExecutionTime = 158.93 s  ClockTime = 160 s

Courant Number mean: 0.00297203 max: 0.313086
Interface Courant Number mean: 1.10843e-05 max: 0.118414
deltaT = 0.02
Time = 0.48

PIMPLE: iteration 1
MULES: Solving for alpha.water
Phase-1 volume fraction = 0.672727  Min(alpha.water) = -4.94066e-324  Max(alpha.water) = 1.08194
MULES: Solving for alpha.water
Phase-1 volume fraction = 0.672727  Min(alpha.water) = -4.94066e-324  Max(alpha.water) = 1.0709
MULES: Solving for alpha.water
Phase-1 volume fraction = 0.672727  Min(alpha.water) = -4.94066e-324  Max(alpha.water) = 1.06022
GAMG:  Solving for p_rgh, Initial residual = 0.00145422, Final residual = 2.22079e-06, No Iterations 1
time step continuity errors : sum local = 0.00167442, global = 2.47054e-19, cumulative = 7.43996e-16
GAMG:  Solving for p_rgh, Initial residual = 2.57203e-06, Final residual = 2.35902e-08, No Iterations 6
time step continuity errors : sum local = 1.7839e-05, global = -5.7489e-18, cumulative = 7.38247e-16
GAMG:  Solving for p_rgh, Initial residual = 3.82372e-07, Final residual = 8.00408e-09, No Iterations 3
time step continuity errors : sum local = 6.03574e-06, global = -3.34572e-17, cumulative = 7.04789e-16
ExecutionTime = 162.77 s  ClockTime = 163 s

Courant Number mean: 0.00250545 max: 0.253692
Interface Courant Number mean: 1.16017e-05 max: 0.118721
deltaT = 0.02
Time = 0.5

PIMPLE: iteration 1
MULES: Solving for alpha.water
Phase-1 volume fraction = 0.672727  Min(alpha.water) = -4.94066e-324  Max(alpha.water) = 1.05899
MULES: Solving for alpha.water
Phase-1 volume fraction = 0.672727  Min(alpha.water) = 0  Max(alpha.water) = 1.0578
MULES: Solving for alpha.water
Phase-1 volume fraction = 0.672727  Min(alpha.water) = 0  Max(alpha.water) = 1.05665
GAMG:  Solving for p_rgh, Initial residual = 0.00147525, Final residual = 2.47885e-06, No Iterations 1
time step continuity errors : sum local = 0.00186329, global = -7.06544e-17, cumulative = 6.34135e-16
GAMG:  Solving for p_rgh, Initial residual = 2.85378e-06, Final residual = 1.4559e-08, No Iterations 5
time step continuity errors : sum local = 1.09487e-05, global = -1.25487e-16, cumulative = 5.08648e-16
GAMG:  Solving for p_rgh, Initial residual = 3.96148e-07, Final residual = 9.27482e-09, No Iterations 3
time step continuity errors : sum local = 6.97327e-06, global = -1.13891e-16, cumulative = 3.94756e-16
ExecutionTime = 167.69 s  ClockTime = 168 s

Courant Number mean: 0.00270539 max: 0.295204
Interface Courant Number mean: 1.2676e-05 max: 0.120989
deltaT = 0.02
Time = 0.52

PIMPLE: iteration 1
MULES: Solving for alpha.water
Phase-1 volume fraction = 0.672727  Min(alpha.water) = 0  Max(alpha.water) = 1.0555
MULES: Solving for alpha.water
Phase-1 volume fraction = 0.672727  Min(alpha.water) = 0  Max(alpha.water) = 1.05439
MULES: Solving for alpha.water
Phase-1 volume fraction = 0.672727  Min(alpha.water) = 0  Max(alpha.water) = 1.0533
GAMG:  Solving for p_rgh, Initial residual = 0.00155924, Final residual = 2.44293e-06, No Iterations 1
time step continuity errors : sum local = 0.00183476, global = -1.18186e-16, cumulative = 2.7657e-16
GAMG:  Solving for p_rgh, Initial residual = 2.84809e-06, Final residual = 1.76063e-08, No Iterations 6
time step continuity errors : sum local = 1.32257e-05, global = -3.47897e-17, cumulative = 2.4178e-16
GAMG:  Solving for p_rgh, Initial residual = 4.31803e-07, Final residual = 7.86052e-09, No Iterations 3
time step continuity errors : sum local = 5.90749e-06, global = -1.08836e-16, cumulative = 1.32944e-16
ExecutionTime = 171.72 s  ClockTime = 172 s

Courant Number mean: 0.00282244 max: 0.298102
Interface Courant Number mean: 1.31462e-05 max: 0.118505
deltaT = 0.02
Time = 0.54

PIMPLE: iteration 1
MULES: Solving for alpha.water
Phase-1 volume fraction = 0.672727  Min(alpha.water) = 0  Max(alpha.water) = 1.05285
MULES: Solving for alpha.water
Phase-1 volume fraction = 0.672727  Min(alpha.water) = 0  Max(alpha.water) = 1.05277
MULES: Solving for alpha.water
Phase-1 volume fraction = 0.672727  Min(alpha.water) = -1.15117e-321  Max(alpha.water) = 1.0526
GAMG:  Solving for p_rgh, Initial residual = 0.00156248, Final residual = 2.71264e-06, No Iterations 1
time step continuity errors : sum local = 0.00203455, global = -5.81873e-17, cumulative = 7.47563e-17
GAMG:  Solving for p_rgh, Initial residual = 3.14905e-06, Final residual = 3.09783e-08, No Iterations 4
time step continuity errors : sum local = 2.32388e-05, global = -1.3052e-16, cumulative = -5.57633e-17
GAMG:  Solving for p_rgh, Initial residual = 4.60075e-07, Final residual = 8.83668e-09, No Iterations 4
time step continuity errors : sum local = 6.63017e-06, global = -5.81169e-17, cumulative = -1.1388e-16
ExecutionTime = 175.51 s  ClockTime = 176 s

Courant Number mean: 0.00328328 max: 0.322322
Interface Courant Number mean: 1.39891e-05 max: 0.121728
deltaT = 0.02
Time = 0.56

PIMPLE: iteration 1
MULES: Solving for alpha.water
Phase-1 volume fraction = 0.672727  Min(alpha.water) = -2.33693e-321  Max(alpha.water) = 1.0523
MULES: Solving for alpha.water
Phase-1 volume fraction = 0.672727  Min(alpha.water) = -2.33693e-321  Max(alpha.water) = 1.052
MULES: Solving for alpha.water
Phase-1 volume fraction = 0.672727  Min(alpha.water) = -2.33693e-321  Max(alpha.water) = 1.05169
GAMG:  Solving for p_rgh, Initial residual = 0.00165172, Final residual = 2.68892e-06, No Iterations 1
time step continuity errors : sum local = 0.00201345, global = -1.16974e-17, cumulative = -1.25578e-16
GAMG:  Solving for p_rgh, Initial residual = 3.14755e-06, Final residual = 3.0695e-08, No Iterations 5
time step continuity errors : sum local = 2.29981e-05, global = 4.36686e-17, cumulative = -8.19091e-17
GAMG:  Solving for p_rgh, Initial residual = 4.89754e-07, Final residual = 5.06342e-09, No Iterations 5
time step continuity errors : sum local = 3.79972e-06, global = 4.47848e-17, cumulative = -3.71243e-17
ExecutionTime = 179.43 s  ClockTime = 180 s

Courant Number mean: 0.00276403 max: 0.3219
Interface Courant Number mean: 1.45151e-05 max: 0.122265
deltaT = 0.02
Time = 0.58

PIMPLE: iteration 1
MULES: Solving for alpha.water
Phase-1 volume fraction = 0.672727  Min(alpha.water) = -1.15117e-321  Max(alpha.water) = 1.05138
MULES: Solving for alpha.water
Phase-1 volume fraction = 0.672727  Min(alpha.water) = 0  Max(alpha.water) = 1.05094
MULES: Solving for alpha.water
Phase-1 volume fraction = 0.672727  Min(alpha.water) = 0  Max(alpha.water) = 1.05038
GAMG:  Solving for p_rgh, Initial residual = 0.00169469, Final residual = 2.92539e-06, No Iterations 1
time step continuity errors : sum local = 0.00218705, global = 8.34123e-17, cumulative = 4.6288e-17
GAMG:  Solving for p_rgh, Initial residual = 3.40769e-06, Final residual = 3.01239e-08, No Iterations 4
time step continuity errors : sum local = 2.2535e-05, global = 1.02595e-16, cumulative = 1.48883e-16
GAMG:  Solving for p_rgh, Initial residual = 5.07068e-07, Final residual = 8.31178e-09, No Iterations 4
time step continuity errors : sum local = 6.23056e-06, global = 5.15152e-17, cumulative = 2.00398e-16
ExecutionTime = 183.1 s  ClockTime = 184 s

Courant Number mean: 0.0031588 max: 0.324144
Interface Courant Number mean: 1.52674e-05 max: 0.123498
deltaT = 0.02
Time = 0.6

PIMPLE: iteration 1
MULES: Solving for alpha.water
Phase-1 volume fraction = 0.672727  Min(alpha.water) = 0  Max(alpha.water) = 1.04977
MULES: Solving for alpha.water
Phase-1 volume fraction = 0.672727  Min(alpha.water) = 0  Max(alpha.water) = 1.04931
MULES: Solving for alpha.water
Phase-1 volume fraction = 0.672727  Min(alpha.water) = 0  Max(alpha.water) = 1.04899
GAMG:  Solving for p_rgh, Initial residual = 0.0017532, Final residual = 2.90321e-06, No Iterations 1
time step continuity errors : sum local = 0.00216779, global = 1.36393e-16, cumulative = 3.36791e-16
GAMG:  Solving for p_rgh, Initial residual = 3.4247e-06, Final residual = 2.71932e-08, No Iterations 5
time step continuity errors : sum local = 2.03276e-05, global = 7.70983e-17, cumulative = 4.13889e-16
GAMG:  Solving for p_rgh, Initial residual = 5.49176e-07, Final residual = 9.48562e-09, No Iterations 4
time step continuity errors : sum local = 7.17532e-06, global = 3.53875e-17, cumulative = 4.49277e-16
ExecutionTime = 188.03 s  ClockTime = 189 s

Courant Number mean: 0.00314648 max: 0.35602
Interface Courant Number mean: 1.57071e-05 max: 0.123756
deltaT = 0.02
Time = 0.62

PIMPLE: iteration 1
MULES: Solving for alpha.water
Phase-1 volume fraction = 0.672727  Min(alpha.water) = -1.62548e-321  Max(alpha.water) = 1.04884
MULES: Solving for alpha.water
Phase-1 volume fraction = 0.672727  Min(alpha.water) = -1.62548e-321  Max(alpha.water) = 1.0466
MULES: Solving for alpha.water
Phase-1 volume fraction = 0.672727  Min(alpha.water) = -1.62548e-321  Max(alpha.water) = 1.04358
GAMG:  Solving for p_rgh, Initial residual = 0.00176324, Final residual = 3.14703e-06, No Iterations 1
time step continuity errors : sum local = 0.00234632, global = -1.53222e-17, cumulative = 4.33954e-16
GAMG:  Solving for p_rgh, Initial residual = 3.6852e-06, Final residual = 3.29016e-08, No Iterations 4
time step continuity errors : sum local = 2.45768e-05, global = -4.03663e-17, cumulative = 3.93588e-16
GAMG:  Solving for p_rgh, Initial residual = 5.62491e-07, Final residual = 9.24432e-09, No Iterations 9
time step continuity errors : sum local = 6.89932e-06, global = 1.20098e-17, cumulative = 4.05598e-16
ExecutionTime = 192.38 s  ClockTime = 193 s

Courant Number mean: 0.00353085 max: 0.36485
Interface Courant Number mean: 1.63672e-05 max: 0.123635
deltaT = 0.02
Time = 0.64

PIMPLE: iteration 1
MULES: Solving for alpha.water
Phase-1 volume fraction = 0.672727  Min(alpha.water) = -1.62548e-321  Max(alpha.water) = 1.04102
MULES: Solving for alpha.water
Phase-1 volume fraction = 0.672727  Min(alpha.water) = -1.62548e-321  Max(alpha.water) = 1.0385
MULES: Solving for alpha.water
Phase-1 volume fraction = 0.672727  Min(alpha.water) = -1.62548e-321  Max(alpha.water) = 1.03602
GAMG:  Solving for p_rgh, Initial residual = 0.00180207, Final residual = 3.14753e-06, No Iterations 1
time step continuity errors : sum local = 0.00234365, global = 1.49309e-17, cumulative = 4.20529e-16
GAMG:  Solving for p_rgh, Initial residual = 3.7137e-06, Final residual = 2.56882e-08, No Iterations 5
time step continuity errors : sum local = 1.91517e-05, global = 4.52486e-17, cumulative = 4.65778e-16
GAMG:  Solving for p_rgh, Initial residual = 5.92514e-07, Final residual = 9.81161e-09, No Iterations 4
time step continuity errors : sum local = 7.40282e-06, global = -1.32916e-17, cumulative = 4.52486e-16
ExecutionTime = 196.24 s  ClockTime = 197 s

Courant Number mean: 0.00326884 max: 0.351797
Interface Courant Number mean: 1.68845e-05 max: 0.123664
deltaT = 0.02
Time = 0.66

PIMPLE: iteration 1
MULES: Solving for alpha.water
Phase-1 volume fraction = 0.672727  Min(alpha.water) = -1.62548e-321  Max(alpha.water) = 1.03317
MULES: Solving for alpha.water
Phase-1 volume fraction = 0.672727  Min(alpha.water) = -1.62548e-321  Max(alpha.water) = 1.02945
MULES: Solving for alpha.water
Phase-1 volume fraction = 0.672727  Min(alpha.water) = 0  Max(alpha.water) = 1.02732
GAMG:  Solving for p_rgh, Initial residual = 0.00183775, Final residual = 3.36549e-06, No Iterations 1
time step continuity errors : sum local = 0.00250301, global = 2.01639e-19, cumulative = 4.52688e-16
GAMG:  Solving for p_rgh, Initial residual = 3.94979e-06, Final residual = 3.25722e-08, No Iterations 4
time step continuity errors : sum local = 2.42835e-05, global = 3.17774e-17, cumulative = 4.84465e-16
GAMG:  Solving for p_rgh, Initial residual = 6.07466e-07, Final residual = 9.69486e-09, No Iterations 6
time step continuity errors : sum local = 7.24037e-06, global = 5.8179e-17, cumulative = 5.42644e-16
ExecutionTime = 200.12 s  ClockTime = 201 s

Courant Number mean: 0.0035453 max: 0.351546
Interface Courant Number mean: 1.74095e-05 max: 0.123237
deltaT = 0.02
Time = 0.68

PIMPLE: iteration 1
MULES: Solving for alpha.water
Phase-1 volume fraction = 0.672727  Min(alpha.water) = 0  Max(alpha.water) = 1.02731
MULES: Solving for alpha.water
Phase-1 volume fraction = 0.672727  Min(alpha.water) = 0  Max(alpha.water) = 1.02723
MULES: Solving for alpha.water
Phase-1 volume fraction = 0.672727  Min(alpha.water) = 0  Max(alpha.water) = 1.0271
GAMG:  Solving for p_rgh, Initial residual = 0.00188462, Final residual = 3.36102e-06, No Iterations 1
time step continuity errors : sum local = 0.00249587, global = 4.19077e-17, cumulative = 5.84552e-16
GAMG:  Solving for p_rgh, Initial residual = 3.95892e-06, Final residual = 3.71606e-08, No Iterations 4
time step continuity errors : sum local = 2.76843e-05, global = 4.52223e-17, cumulative = 6.29774e-16
GAMG:  Solving for p_rgh, Initial residual = 6.25866e-07, Final residual = 9.30076e-09, No Iterations 7
time step continuity errors : sum local = 6.9383e-06, global = 4.01567e-17, cumulative = 6.69931e-16
ExecutionTime = 204.1 s  ClockTime = 205 s

Courant Number mean: 0.00346376 max: 0.340443
Interface Courant Number mean: 1.76796e-05 max: 0.123218
deltaT = 0.02
Time = 0.7

PIMPLE: iteration 1
MULES: Solving for alpha.water
Phase-1 volume fraction = 0.672727  Min(alpha.water) = -6.7687e-322  Max(alpha.water) = 1.02695
MULES: Solving for alpha.water
Phase-1 volume fraction = 0.672727  Min(alpha.water) = -6.7687e-322  Max(alpha.water) = 1.02677
MULES: Solving for alpha.water
Phase-1 volume fraction = 0.672727  Min(alpha.water) = 0  Max(alpha.water) = 1.02657
GAMG:  Solving for p_rgh, Initial residual = 0.0018859, Final residual = 3.4825e-06, No Iterations 1
time step continuity errors : sum local = 0.00258314, global = 1.67013e-17, cumulative = 6.86632e-16
GAMG:  Solving for p_rgh, Initial residual = 4.09248e-06, Final residual = 3.27624e-08, No Iterations 4
time step continuity errors : sum local = 2.43666e-05, global = 1.38636e-17, cumulative = 7.00496e-16
GAMG:  Solving for p_rgh, Initial residual = 6.35163e-07, Final residual = 9.91198e-09, No Iterations 9
time step continuity errors : sum local = 7.39218e-06, global = 1.34969e-17, cumulative = 7.13992e-16
ExecutionTime = 209.45 s  ClockTime = 210 s

Courant Number mean: 0.0036658 max: 0.36977
Interface Courant Number mean: 1.78432e-05 max: 0.123148
deltaT = 0.02
Time = 0.72

PIMPLE: iteration 1
MULES: Solving for alpha.water
Phase-1 volume fraction = 0.672727  Min(alpha.water) = 0  Max(alpha.water) = 1.02637
MULES: Solving for alpha.water
Phase-1 volume fraction = 0.672727  Min(alpha.water) = 0  Max(alpha.water) = 1.02617
MULES: Solving for alpha.water
Phase-1 volume fraction = 0.672727  Min(alpha.water) = 0  Max(alpha.water) = 1.02596
GAMG:  Solving for p_rgh, Initial residual = 0.00190178, Final residual = 3.45079e-06, No Iterations 1
time step continuity errors : sum local = 0.00255758, global = 1.49827e-17, cumulative = 7.28975e-16
GAMG:  Solving for p_rgh, Initial residual = 4.07452e-06, Final residual = 3.78817e-08, No Iterations 4
time step continuity errors : sum local = 2.81376e-05, global = -2.19367e-17, cumulative = 7.07038e-16
GAMG:  Solving for p_rgh, Initial residual = 6.51455e-07, Final residual = 9.7297e-09, No Iterations 6
time step continuity errors : sum local = 7.27189e-06, global = -6.61855e-17, cumulative = 6.40853e-16
ExecutionTime = 213.56 s  ClockTime = 214 s

Courant Number mean: 0.00353357 max: 0.361649
Interface Courant Number mean: 1.80357e-05 max: 0.122693
deltaT = 0.02
Time = 0.74

PIMPLE: iteration 1
MULES: Solving for alpha.water
Phase-1 volume fraction = 0.672727  Min(alpha.water) = 0  Max(alpha.water) = 1.02559
MULES: Solving for alpha.water
Phase-1 volume fraction = 0.672727  Min(alpha.water) = 0  Max(alpha.water) = 1.02523
MULES: Solving for alpha.water
Phase-1 volume fraction = 0.672727  Min(alpha.water) = 0  Max(alpha.water) = 1.02485
GAMG:  Solving for p_rgh, Initial residual = 0.00191895, Final residual = 3.53716e-06, No Iterations 1
time step continuity errors : sum local = 0.00261947, global = -5.35678e-17, cumulative = 5.87285e-16
GAMG:  Solving for p_rgh, Initial residual = 4.17222e-06, Final residual = 3.39127e-08, No Iterations 4
time step continuity errors : sum local = 2.51571e-05, global = -5.21933e-17, cumulative = 5.35092e-16
GAMG:  Solving for p_rgh, Initial residual = 6.60609e-07, Final residual = 9.59301e-09, No Iterations 8
time step continuity errors : sum local = 7.1278e-06, global = -4.38271e-17, cumulative = 4.91265e-16
ExecutionTime = 217.65 s  ClockTime = 218 s

Courant Number mean: 0.00341386 max: 0.383621
Interface Courant Number mean: 1.81745e-05 max: 0.122767
deltaT = 0.02
Time = 0.76

PIMPLE: iteration 1
MULES: Solving for alpha.water
Phase-1 volume fraction = 0.672727  Min(alpha.water) = 0  Max(alpha.water) = 1.02461
MULES: Solving for alpha.water
Phase-1 volume fraction = 0.672727  Min(alpha.water) = 0  Max(alpha.water) = 1.02436
MULES: Solving for alpha.water
Phase-1 volume fraction = 0.672727  Min(alpha.water) = 0  Max(alpha.water) = 1.02411
GAMG:  Solving for p_rgh, Initial residual = 0.00194474, Final residual = 3.52082e-06, No Iterations 1
time step continuity errors : sum local = 0.00260399, global = -8.38964e-17, cumulative = 4.07368e-16
GAMG:  Solving for p_rgh, Initial residual = 4.16283e-06, Final residual = 4.11743e-08, No Iterations 4
time step continuity errors : sum local = 3.05098e-05, global = -4.61821e-17, cumulative = 3.61186e-16
GAMG:  Solving for p_rgh, Initial residual = 6.71406e-07, Final residual = 8.98227e-09, No Iterations 6
time step continuity errors : sum local = 6.69598e-06, global = -4.93412e-17, cumulative = 3.11845e-16
ExecutionTime = 221.56 s  ClockTime = 222 s

Courant Number mean: 0.00321326 max: 0.36832
Interface Courant Number mean: 1.84922e-05 max: 0.123165
deltaT = 0.02
Time = 0.78

PIMPLE: iteration 1
MULES: Solving for alpha.water
Phase-1 volume fraction = 0.672727  Min(alpha.water) = 0  Max(alpha.water) = 1.02373
MULES: Solving for alpha.water
Phase-1 volume fraction = 0.672727  Min(alpha.water) = 0  Max(alpha.water) = 1.02334
MULES: Solving for alpha.water
Phase-1 volume fraction = 0.672727  Min(alpha.water) = 0  Max(alpha.water) = 1.02293
GAMG:  Solving for p_rgh, Initial residual = 0.00195476, Final residual = 3.58435e-06, No Iterations 1
time step continuity errors : sum local = 0.0026485, global = -7.60878e-17, cumulative = 2.35757e-16
GAMG:  Solving for p_rgh, Initial residual = 4.2239e-06, Final residual = 3.68495e-08, No Iterations 4
time step continuity errors : sum local = 2.72449e-05, global = -4.12182e-17, cumulative = 1.94539e-16
GAMG:  Solving for p_rgh, Initial residual = 6.66588e-07, Final residual = 9.33988e-09, No Iterations 6
time step continuity errors : sum local = 6.91761e-06, global = 5.18124e-17, cumulative = 2.46352e-16
ExecutionTime = 225.45 s  ClockTime = 226 s

Courant Number mean: 0.00309678 max: 0.359166
Interface Courant Number mean: 1.87695e-05 max: 0.122874
deltaT = 0.02
Time = 0.8

PIMPLE: iteration 1
MULES: Solving for alpha.water
Phase-1 volume fraction = 0.672727  Min(alpha.water) = -9.07652e-12  Max(alpha.water) = 1.02258
MULES: Solving for alpha.water
Phase-1 volume fraction = 0.672727  Min(alpha.water) = 0  Max(alpha.water) = 1.02223
MULES: Solving for alpha.water
Phase-1 volume fraction = 0.672727  Min(alpha.water) = 0  Max(alpha.water) = 1.02186
GAMG:  Solving for p_rgh, Initial residual = 0.00197036, Final residual = 3.50843e-06, No Iterations 1
time step continuity errors : sum local = 0.00258979, global = 3.21902e-17, cumulative = 2.78542e-16
GAMG:  Solving for p_rgh, Initial residual = 4.13358e-06, Final residual = 2.71553e-08, No Iterations 5
time step continuity errors : sum local = 2.00507e-05, global = 1.15356e-17, cumulative = 2.90077e-16
GAMG:  Solving for p_rgh, Initial residual = 6.52647e-07, Final residual = 9.25639e-09, No Iterations 3
time step continuity errors : sum local = 6.84804e-06, global = 3.77888e-17, cumulative = 3.27866e-16
ExecutionTime = 230.35 s  ClockTime = 231 s

Courant Number mean: 0.0030463 max: 0.34937
Interface Courant Number mean: 1.90783e-05 max: 0.123323
deltaT = 0.02
Time = 0.82

PIMPLE: iteration 1
MULES: Solving for alpha.water
Phase-1 volume fraction = 0.672727  Min(alpha.water) = 0  Max(alpha.water) = 1.02151
MULES: Solving for alpha.water
Phase-1 volume fraction = 0.672727  Min(alpha.water) = 0  Max(alpha.water) = 1.02116
MULES: Solving for alpha.water
Phase-1 volume fraction = 0.672727  Min(alpha.water) = 0  Max(alpha.water) = 1.02081
GAMG:  Solving for p_rgh, Initial residual = 0.00197829, Final residual = 3.5996e-06, No Iterations 1
time step continuity errors : sum local = 0.00265485, global = 4.43853e-17, cumulative = 3.72251e-16
GAMG:  Solving for p_rgh, Initial residual = 4.22561e-06, Final residual = 3.74363e-08, No Iterations 4
time step continuity errors : sum local = 2.76234e-05, global = 1.11449e-17, cumulative = 3.83396e-16
GAMG:  Solving for p_rgh, Initial residual = 6.52669e-07, Final residual = 9.18637e-09, No Iterations 4
time step continuity errors : sum local = 6.79116e-06, global = 4.31249e-17, cumulative = 4.26521e-16
ExecutionTime = 234.36 s  ClockTime = 235 s

Courant Number mean: 0.00301333 max: 0.327273
Interface Courant Number mean: 1.9579e-05 max: 0.123413
deltaT = 0.02
Time = 0.84

PIMPLE: iteration 1
MULES: Solving for alpha.water
Phase-1 volume fraction = 0.672727  Min(alpha.water) = 0  Max(alpha.water) = 1.02058
MULES: Solving for alpha.water
Phase-1 volume fraction = 0.672727  Min(alpha.water) = 0  Max(alpha.water) = 1.02036
MULES: Solving for alpha.water
Phase-1 volume fraction = 0.672727  Min(alpha.water) = 0  Max(alpha.water) = 1.02013
GAMG:  Solving for p_rgh, Initial residual = 0.00201495, Final residual = 3.50129e-06, No Iterations 1
time step continuity errors : sum local = 0.00257997, global = 1.19244e-16, cumulative = 5.45766e-16
GAMG:  Solving for p_rgh, Initial residual = 4.10251e-06, Final residual = 2.96463e-08, No Iterations 5
time step continuity errors : sum local = 2.18599e-05, global = 1.16021e-16, cumulative = 6.61787e-16
GAMG:  Solving for p_rgh, Initial residual = 6.30453e-07, Final residual = 6.05242e-09, No Iterations 5
time step continuity errors : sum local = 4.4707e-06, global = 3.32138e-17, cumulative = 6.95001e-16
ExecutionTime = 238.26 s  ClockTime = 239 s

Courant Number mean: 0.00324576 max: 0.313811
Interface Courant Number mean: 1.98463e-05 max: 0.121831
deltaT = 0.02
Time = 0.86

PIMPLE: iteration 1
MULES: Solving for alpha.water
Phase-1 volume fraction = 0.672727  Min(alpha.water) = 0  Max(alpha.water) = 1.01993
MULES: Solving for alpha.water
Phase-1 volume fraction = 0.672727  Min(alpha.water) = 0  Max(alpha.water) = 1.01973
MULES: Solving for alpha.water
Phase-1 volume fraction = 0.672727  Min(alpha.water) = 0  Max(alpha.water) = 1.01953
GAMG:  Solving for p_rgh, Initial residual = 0.00204779, Final residual = 3.65752e-06, No Iterations 1
time step continuity errors : sum local = 0.00269028, global = 7.07875e-17, cumulative = 7.65788e-16
GAMG:  Solving for p_rgh, Initial residual = 4.26317e-06, Final residual = 3.97501e-08, No Iterations 4
time step continuity errors : sum local = 2.92796e-05, global = 1.08231e-16, cumulative = 8.7402e-16
GAMG:  Solving for p_rgh, Initial residual = 6.31339e-07, Final residual = 8.46246e-09, No Iterations 4
time step continuity errors : sum local = 6.24229e-06, global = 6.7898e-17, cumulative = 9.41918e-16
ExecutionTime = 242 s  ClockTime = 243 s

Courant Number mean: 0.0032576 max: 0.360728
Interface Courant Number mean: 2.03595e-05 max: 0.121812
deltaT = 0.02
Time = 0.88

PIMPLE: iteration 1
MULES: Solving for alpha.water
Phase-1 volume fraction = 0.672727  Min(alpha.water) = -4.94066e-324  Max(alpha.water) = 1.01937
MULES: Solving for alpha.water
Phase-1 volume fraction = 0.672727  Min(alpha.water) = -1.9565e-321  Max(alpha.water) = 1.0192
MULES: Solving for alpha.water
Phase-1 volume fraction = 0.672727  Min(alpha.water) = -1.9565e-321  Max(alpha.water) = 1.01904
GAMG:  Solving for p_rgh, Initial residual = 0.00206066, Final residual = 3.49578e-06, No Iterations 1
time step continuity errors : sum local = 0.0025678, global = 4.33904e-17, cumulative = 9.85308e-16
GAMG:  Solving for p_rgh, Initial residual = 4.0922e-06, Final residual = 2.44959e-08, No Iterations 5
time step continuity errors : sum local = 1.80272e-05, global = 5.62933e-17, cumulative = 1.0416e-15
GAMG:  Solving for p_rgh, Initial residual = 6.24975e-07, Final residual = 8.72156e-09, No Iterations 5
time step continuity errors : sum local = 6.4267e-06, global = 1.6091e-17, cumulative = 1.05769e-15
ExecutionTime = 245.87 s  ClockTime = 247 s

Courant Number mean: 0.00320394 max: 0.346291
Interface Courant Number mean: 2.06806e-05 max: 0.121455
deltaT = 0.02
Time = 0.9

PIMPLE: iteration 1
MULES: Solving for alpha.water
Phase-1 volume fraction = 0.672727  Min(alpha.water) = -1.9565e-321  Max(alpha.water) = 1.01891
MULES: Solving for alpha.water
Phase-1 volume fraction = 0.672727  Min(alpha.water) = -1.9565e-321  Max(alpha.water) = 1.01879
MULES: Solving for alpha.water
Phase-1 volume fraction = 0.672727  Min(alpha.water) = -1.9565e-321  Max(alpha.water) = 1.01866
GAMG:  Solving for p_rgh, Initial residual = 0.00206372, Final residual = 3.60623e-06, No Iterations 1
time step continuity errors : sum local = 0.00264546, global = 1.69212e-17, cumulative = 1.07461e-15
GAMG:  Solving for p_rgh, Initial residual = 4.1776e-06, Final residual = 3.70131e-08, No Iterations 4
time step continuity errors : sum local = 2.71808e-05, global = 9.05897e-17, cumulative = 1.1652e-15
GAMG:  Solving for p_rgh, Initial residual = 5.97726e-07, Final residual = 9.62816e-09, No Iterations 6
time step continuity errors : sum local = 7.09559e-06, global = 6.6209e-17, cumulative = 1.23141e-15
ExecutionTime = 250.9 s  ClockTime = 252 s

Courant Number mean: 0.00315152 max: 0.374618
Interface Courant Number mean: 2.10774e-05 max: 0.12096
deltaT = 0.02
Time = 0.92

PIMPLE: iteration 1
MULES: Solving for alpha.water
Phase-1 volume fraction = 0.672727  Min(alpha.water) = -1.9565e-321  Max(alpha.water) = 1.01844
MULES: Solving for alpha.water
Phase-1 volume fraction = 0.672727  Min(alpha.water) = -4.18474e-321  Max(alpha.water) = 1.01822
MULES: Solving for alpha.water
Phase-1 volume fraction = 0.672727  Min(alpha.water) = -4.18474e-321  Max(alpha.water) = 1.018
GAMG:  Solving for p_rgh, Initial residual = 0.00207403, Final residual = 3.49057e-06, No Iterations 1
time step continuity errors : sum local = 0.00255813, global = 8.64245e-17, cumulative = 1.31784e-15
GAMG:  Solving for p_rgh, Initial residual = 4.05827e-06, Final residual = 2.96831e-08, No Iterations 5
time step continuity errors : sum local = 2.18865e-05, global = 1.60795e-16, cumulative = 1.47863e-15
GAMG:  Solving for p_rgh, Initial residual = 5.99504e-07, Final residual = 9.74249e-09, No Iterations 7
time step continuity errors : sum local = 7.21471e-06, global = 1.70976e-16, cumulative = 1.64961e-15
ExecutionTime = 255.18 s  ClockTime = 256 s

Courant Number mean: 0.00324569 max: 0.365653
Interface Courant Number mean: 2.1426e-05 max: 0.120932
deltaT = 0.02
Time = 0.94

PIMPLE: iteration 1
MULES: Solving for alpha.water
Phase-1 volume fraction = 0.672727  Min(alpha.water) = -4.18474e-321  Max(alpha.water) = 1.01794
MULES: Solving for alpha.water
Phase-1 volume fraction = 0.672727  Min(alpha.water) = -4.18474e-321  Max(alpha.water) = 1.01789
MULES: Solving for alpha.water
Phase-1 volume fraction = 0.672727  Min(alpha.water) = -4.18474e-321  Max(alpha.water) = 1.01784
GAMG:  Solving for p_rgh, Initial residual = 0.00208464, Final residual = 3.57455e-06, No Iterations 1
time step continuity errors : sum local = 0.00261691, global = 1.71232e-16, cumulative = 1.82084e-15
GAMG:  Solving for p_rgh, Initial residual = 4.13147e-06, Final residual = 3.72756e-08, No Iterations 4
time step continuity errors : sum local = 2.73457e-05, global = 2.13893e-16, cumulative = 2.03473e-15
GAMG:  Solving for p_rgh, Initial residual = 5.83107e-07, Final residual = 9.26497e-09, No Iterations 6
time step continuity errors : sum local = 6.81056e-06, global = 4.75393e-17, cumulative = 2.08227e-15
ExecutionTime = 259.09 s  ClockTime = 260 s

Courant Number mean: 0.00321849 max: 0.401448
Interface Courant Number mean: 2.17323e-05 max: 0.120517
deltaT = 0.02
Time = 0.96

PIMPLE: iteration 1
MULES: Solving for alpha.water
Phase-1 volume fraction = 0.672727  Min(alpha.water) = -4.18474e-321  Max(alpha.water) = 1.01765
MULES: Solving for alpha.water
Phase-1 volume fraction = 0.672727  Min(alpha.water) = -4.18474e-321  Max(alpha.water) = 1.01746
MULES: Solving for alpha.water
Phase-1 volume fraction = 0.672727  Min(alpha.water) = -4.18474e-321  Max(alpha.water) = 1.01727
GAMG:  Solving for p_rgh, Initial residual = 0.00209151, Final residual = 3.46249e-06, No Iterations 1
time step continuity errors : sum local = 0.00253281, global = 6.10578e-17, cumulative = 2.14333e-15
GAMG:  Solving for p_rgh, Initial residual = 4.02097e-06, Final residual = 2.38057e-08, No Iterations 5
time step continuity errors : sum local = 1.74887e-05, global = 7.21588e-17, cumulative = 2.21549e-15
GAMG:  Solving for p_rgh, Initial residual = 5.88847e-07, Final residual = 9.10803e-09, No Iterations 6
time step continuity errors : sum local = 6.70407e-06, global = 1.31165e-16, cumulative = 2.34665e-15
ExecutionTime = 263.11 s  ClockTime = 264 s

Courant Number mean: 0.00341796 max: 0.394132
Interface Courant Number mean: 2.1926e-05 max: 0.120664
deltaT = 0.02
Time = 0.98

PIMPLE: iteration 1
MULES: Solving for alpha.water
[...]
MULES: Solving for alpha.water
Phase-1 volume fraction = 0.672727  Min(alpha.water) = 3.72972e-236  Max(alpha.water) = 1.01013
MULES: Solving for alpha.water
Phase-1 volume fraction = 0.672727  Min(alpha.water) = 3.77954e-236  Max(alpha.water) = 1.01013
GAMG:  Solving for p_rgh, Initial residual = 0.020953, Final residual = 4.32442e-05, No Iterations 1
time step continuity errors : sum local = 0.00817686, global = 3.98865e-17, cumulative = -1.18083e-14
GAMG:  Solving for p_rgh, Initial residual = 5.02206e-05, Final residual = 3.95846e-07, No Iterations 4
time step continuity errors : sum local = 7.46152e-05, global = 1.68487e-17, cumulative = -1.17915e-14
GAMG:  Solving for p_rgh, Initial residual = 7.39829e-06, Final residual = 9.47275e-09, No Iterations 15
time step continuity errors : sum local = 1.78749e-06, global = 6.81313e-18, cumulative = -1.17847e-14
ExecutionTime = 10382.1 s  ClockTime = 10402 s

Courant Number mean: 0.0213532 max: 1.01596
Interface Courant Number mean: 0.000151145 max: 0.366887
deltaT = 0.00625
Time = 18.8938

PIMPLE: iteration 1
MULES: Solving for alpha.water
Phase-1 volume fraction = 0.672727  Min(alpha.water) = 3.96438e-236  Max(alpha.water) = 1.01013
MULES: Solving for alpha.water
Phase-1 volume fraction = 0.672727  Min(alpha.water) = 4.15513e-236  Max(alpha.water) = 1.01013
MULES: Solving for alpha.water
Phase-1 volume fraction = 0.672727  Min(alpha.water) = 4.35192e-236  Max(alpha.water) = 1.01013
GAMG:  Solving for p_rgh, Initial residual = 0.0101012, Final residual = 2.16074e-05, No Iterations 1
time step continuity errors : sum local = 0.00128256, global = 9.53491e-18, cumulative = -1.17751e-14
GAMG:  Solving for p_rgh, Initial residual = 2.35594e-05, Final residual = 1.69024e-07, No Iterations 4
time step continuity errors : sum local = 1.00192e-05, global = 6.26392e-18, cumulative = -1.17689e-14
GAMG:  Solving for p_rgh, Initial residual = 2.17326e-06, Final residual = 8.89711e-09, No Iterations 6
time step continuity errors : sum local = 5.2756e-07, global = 1.06323e-17, cumulative = -1.17582e-14
ExecutionTime = 10386.1 s  ClockTime = 10406 s

Courant Number mean: 0.0106609 max: 0.367974
Interface Courant Number mean: 7.57907e-05 max: 0.182154
deltaT = 0.00625
Time = 18.9

PIMPLE: iteration 1
MULES: Solving for alpha.water
Phase-1 volume fraction = 0.672727  Min(alpha.water) = 4.39266e-236  Max(alpha.water) = 1.01013
MULES: Solving for alpha.water
Phase-1 volume fraction = 0.672727  Min(alpha.water) = 4.43391e-236  Max(alpha.water) = 1.01013
MULES: Solving for alpha.water
Phase-1 volume fraction = 0.672727  Min(alpha.water) = 4.47569e-236  Max(alpha.water) = 1.01013
GAMG:  Solving for p_rgh, Initial residual = 0.0100563, Final residual = 2.04988e-05, No Iterations 1
time step continuity errors : sum local = 0.0012159, global = 7.53331e-18, cumulative = -1.17507e-14
GAMG:  Solving for p_rgh, Initial residual = 2.23774e-05, Final residual = 1.65359e-07, No Iterations 4
time step continuity errors : sum local = 9.79547e-06, global = 1.04771e-17, cumulative = -1.17402e-14
GAMG:  Solving for p_rgh, Initial residual = 2.05727e-06, Final residual = 9.47522e-09, No Iterations 8
time step continuity errors : sum local = 5.61989e-07, global = 8.17443e-18, cumulative = -1.17321e-14
ExecutionTime = 10391.7 s  ClockTime = 10411 s

Courant Number mean: 0.0106436 max: 0.363113
Interface Courant Number mean: 7.58329e-05 max: 0.184366
deltaT = 0.00714286
Time = 18.9071

PIMPLE: iteration 1
MULES: Solving for alpha.water
Phase-1 volume fraction = 0.672727  Min(alpha.water) = 4.58025e-236  Max(alpha.water) = 1.01013
MULES: Solving for alpha.water
Phase-1 volume fraction = 0.672727  Min(alpha.water) = 4.68711e-236  Max(alpha.water) = 1.01013
MULES: Solving for alpha.water
Phase-1 volume fraction = 0.672727  Min(alpha.water) = 4.79632e-236  Max(alpha.water) = 1.01013
GAMG:  Solving for p_rgh, Initial residual = 0.011566, Final residual = 2.44387e-05, No Iterations 1
time step continuity errors : sum local = 0.00182471, global = 1.00236e-17, cumulative = -1.1722e-14
GAMG:  Solving for p_rgh, Initial residual = 2.68816e-05, Final residual = 2.04272e-07, No Iterations 4
time step continuity errors : sum local = 1.52277e-05, global = 1.24515e-18, cumulative = -1.17208e-14
GAMG:  Solving for p_rgh, Initial residual = 2.70751e-06, Final residual = 6.4016e-09, No Iterations 8
time step continuity errors : sum local = 4.77326e-07, global = 1.0673e-17, cumulative = -1.17101e-14
ExecutionTime = 10395.8 s  ClockTime = 10415 s

Courant Number mean: 0.0121922 max: 0.411671
Interface Courant Number mean: 8.67219e-05 max: 0.208809
deltaT = 0.00844156
Time = 18.9156

PIMPLE: iteration 1
MULES: Solving for alpha.water
Phase-1 volume fraction = 0.672727  Min(alpha.water) = 4.86076e-236  Max(alpha.water) = 1.01013
MULES: Solving for alpha.water
Phase-1 volume fraction = 0.672727  Min(alpha.water) = 4.9258e-236  Max(alpha.water) = 1.01013
MULES: Solving for alpha.water
Phase-1 volume fraction = 0.672727  Min(alpha.water) = 4.99143e-236  Max(alpha.water) = 1.01013
GAMG:  Solving for p_rgh, Initial residual = 0.0137988, Final residual = 2.7801e-05, No Iterations 1
time step continuity errors : sum local = 0.00275573, global = 9.44574e-18, cumulative = -1.17007e-14
GAMG:  Solving for p_rgh, Initial residual = 3.10923e-05, Final residual = 2.31993e-07, No Iterations 4
time step continuity errors : sum local = 2.29501e-05, global = 1.18835e-17, cumulative = -1.16888e-14
GAMG:  Solving for p_rgh, Initial residual = 3.54518e-06, Final residual = 9.1204e-09, No Iterations 9
time step continuity errors : sum local = 9.03709e-07, global = 1.47643e-17, cumulative = -1.1674e-14
ExecutionTime = 10400 s  ClockTime = 10420 s

Courant Number mean: 0.0143695 max: 0.48787
Interface Courant Number mean: 0.000102618 max: 0.247853
deltaT = 0.00937951
Time = 18.925

PIMPLE: iteration 1
MULES: Solving for alpha.water
Phase-1 volume fraction = 0.672727  Min(alpha.water) = 4.99159e-236  Max(alpha.water) = 1.01013
MULES: Solving for alpha.water
Phase-1 volume fraction = 0.672727  Min(alpha.water) = 4.99174e-236  Max(alpha.water) = 1.01012
MULES: Solving for alpha.water
Phase-1 volume fraction = 0.672727  Min(alpha.water) = 4.99189e-236  Max(alpha.water) = 1.01012
GAMG:  Solving for p_rgh, Initial residual = 0.0153849, Final residual = 3.20582e-05, No Iterations 1
time step continuity errors : sum local = 0.00378648, global = 2.31205e-17, cumulative = -1.16509e-14
GAMG:  Solving for p_rgh, Initial residual = 3.60884e-05, Final residual = 3.09338e-07, No Iterations 4
time step continuity errors : sum local = 3.64606e-05, global = 2.1086e-17, cumulative = -1.16298e-14
GAMG:  Solving for p_rgh, Initial residual = 4.4102e-06, Final residual = 7.47721e-09, No Iterations 14
time step continuity errors : sum local = 8.83389e-07, global = 1.67242e-17, cumulative = -1.16131e-14
ExecutionTime = 10404.8 s  ClockTime = 10424 s

Courant Number mean: 0.0160079 max: 0.55333
Interface Courant Number mean: 0.000113777 max: 0.273602
deltaT = 0.0107194
Time = 18.9357

PIMPLE: iteration 1
MULES: Solving for alpha.water
Phase-1 volume fraction = 0.672727  Min(alpha.water) = 4.99217e-236  Max(alpha.water) = 1.01012
MULES: Solving for alpha.water
Phase-1 volume fraction = 0.672727  Min(alpha.water) = 4.99246e-236  Max(alpha.water) = 1.01012
MULES: Solving for alpha.water
Phase-1 volume fraction = 0.672727  Min(alpha.water) = 4.99274e-236  Max(alpha.water) = 1.01012
GAMG:  Solving for p_rgh, Initial residual = 0.0177031, Final residual = 3.43148e-05, No Iterations 1
time step continuity errors : sum local = 0.00504699, global = 1.42338e-17, cumulative = -1.15989e-14
GAMG:  Solving for p_rgh, Initial residual = 3.93477e-05, Final residual = 3.01961e-07, No Iterations 4
time step continuity errors : sum local = 4.43006e-05, global = 9.97874e-18, cumulative = -1.15889e-14
GAMG:  Solving for p_rgh, Initial residual = 5.36663e-06, Final residual = 7.74789e-09, No Iterations 9
time step continuity errors : sum local = 1.13695e-06, global = 2.2466e-17, cumulative = -1.15664e-14
ExecutionTime = 10409 s  ClockTime = 10429 s

Courant Number mean: 0.0182561 max: 0.617756
Interface Courant Number mean: 0.00012981 max: 0.310283
deltaT = 0.0107194
Time = 18.9464

PIMPLE: iteration 1
MULES: Solving for alpha.water
Phase-1 volume fraction = 0.672727  Min(alpha.water) = 5.08903e-236  Max(alpha.water) = 1.01012
MULES: Solving for alpha.water
Phase-1 volume fraction = 0.672727  Min(alpha.water) = 5.18713e-236  Max(alpha.water) = 1.01012
MULES: Solving for alpha.water
Phase-1 volume fraction = 0.672727  Min(alpha.water) = 5.28708e-236  Max(alpha.water) = 1.01012
GAMG:  Solving for p_rgh, Initial residual = 0.0177206, Final residual = 3.5705e-05, No Iterations 1
time step continuity errors : sum local = 0.00524949, global = 1.65192e-17, cumulative = -1.15499e-14
GAMG:  Solving for p_rgh, Initial residual = 4.08374e-05, Final residual = 3.58064e-07, No Iterations 4
time step continuity errors : sum local = 5.25113e-05, global = 4.24583e-17, cumulative = -1.15074e-14
GAMG:  Solving for p_rgh, Initial residual = 5.55008e-06, Final residual = 9.02191e-09, No Iterations 16
time step continuity errors : sum local = 1.32582e-06, global = 8.66134e-18, cumulative = -1.14988e-14
ExecutionTime = 10413.9 s  ClockTime = 10433 s

Courant Number mean: 0.0183291 max: 0.669751
Interface Courant Number mean: 0.000129318 max: 0.308418
deltaT = 0.0107194
Time = 18.9571

PIMPLE: iteration 1
MULES: Solving for alpha.water
Phase-1 volume fraction = 0.672727  Min(alpha.water) = 5.4707e-236  Max(alpha.water) = 1.01012
MULES: Solving for alpha.water
Phase-1 volume fraction = 0.672727  Min(alpha.water) = 5.66023e-236  Max(alpha.water) = 1.01012
MULES: Solving for alpha.water
Phase-1 volume fraction = 0.672727  Min(alpha.water) = 5.85587e-236  Max(alpha.water) = 1.01011
GAMG:  Solving for p_rgh, Initial residual = 0.0177224, Final residual = 3.46496e-05, No Iterations 1
time step continuity errors : sum local = 0.0050926, global = 9.14809e-18, cumulative = -1.14896e-14
GAMG:  Solving for p_rgh, Initial residual = 3.97142e-05, Final residual = 3.34642e-07, No Iterations 4
time step continuity errors : sum local = 4.90574e-05, global = -2.96313e-18, cumulative = -1.14926e-14
GAMG:  Solving for p_rgh, Initial residual = 5.44876e-06, Final residual = 9.41244e-09, No Iterations 9
time step continuity errors : sum local = 1.38283e-06, global = 5.1498e-18, cumulative = -1.14874e-14
ExecutionTime = 10418.1 s  ClockTime = 10438 s

Courant Number mean: 0.0182298 max: 0.711061
Interface Courant Number mean: 0.000129901 max: 0.305271
deltaT = 0.0107194
Time = 18.9678

PIMPLE: iteration 1
MULES: Solving for alpha.water
Phase-1 volume fraction = 0.672727  Min(alpha.water) = 6.08951e-236  Max(alpha.water) = 1.01012
MULES: Solving for alpha.water
Phase-1 volume fraction = 0.672727  Min(alpha.water) = 6.33296e-236  Max(alpha.water) = 1.01012
MULES: Solving for alpha.water
Phase-1 volume fraction = 0.672727  Min(alpha.water) = 6.58662e-236  Max(alpha.water) = 1.01012
GAMG:  Solving for p_rgh, Initial residual = 0.0177299, Final residual = 3.57449e-05, No Iterations 1
time step continuity errors : sum local = 0.00525572, global = 8.71247e-18, cumulative = -1.14787e-14
GAMG:  Solving for p_rgh, Initial residual = 4.08704e-05, Final residual = 3.69727e-07, No Iterations 4
time step continuity errors : sum local = 5.42259e-05, global = 2.17091e-17, cumulative = -1.1457e-14
GAMG:  Solving for p_rgh, Initial residual = 5.56195e-06, Final residual = 8.15605e-09, No Iterations 16
time step continuity errors : sum local = 1.19741e-06, global = 2.33545e-18, cumulative = -1.14547e-14
ExecutionTime = 10423 s  ClockTime = 10442 s

Courant Number mean: 0.0182942 max: 0.775836
Interface Courant Number mean: 0.000129478 max: 0.305177
deltaT = 0.0107194
Time = 18.9786

PIMPLE: iteration 1
MULES: Solving for alpha.water
Phase-1 volume fraction = 0.672727  Min(alpha.water) = 6.59251e-236  Max(alpha.water) = 1.01012
MULES: Solving for alpha.water
Phase-1 volume fraction = 0.672727  Min(alpha.water) = 6.59841e-236  Max(alpha.water) = 1.01012
MULES: Solving for alpha.water
Phase-1 volume fraction = 0.672727  Min(alpha.water) = 6.6043e-236  Max(alpha.water) = 1.01012
GAMG:  Solving for p_rgh, Initial residual = 0.0177569, Final residual = 3.45405e-05, No Iterations 1
time step continuity errors : sum local = 0.00508241, global = 1.39243e-17, cumulative = -1.14408e-14
GAMG:  Solving for p_rgh, Initial residual = 3.96208e-05, Final residual = 3.30432e-07, No Iterations 4
time step continuity errors : sum local = 4.84982e-05, global = 1.05192e-17, cumulative = -1.14302e-14
GAMG:  Solving for p_rgh, Initial residual = 5.45594e-06, Final residual = 9.57644e-09, No Iterations 10
time step continuity errors : sum local = 1.41135e-06, global = 7.95841e-18, cumulative = -1.14223e-14
ExecutionTime = 10427.3 s  ClockTime = 10447 s

Courant Number mean: 0.0181818 max: 0.796189
Interface Courant Number mean: 0.000129363 max: 0.305276
deltaT = 0.0107194
Time = 18.9893

PIMPLE: iteration 1
MULES: Solving for alpha.water
Phase-1 volume fraction = 0.672727  Min(alpha.water) = 6.63029e-236  Max(alpha.water) = 1.01012
MULES: Solving for alpha.water
Phase-1 volume fraction = 0.672727  Min(alpha.water) = 6.65647e-236  Max(alpha.water) = 1.01012
MULES: Solving for alpha.water
Phase-1 volume fraction = 0.672727  Min(alpha.water) = 6.68284e-236  Max(alpha.water) = 1.01012
GAMG:  Solving for p_rgh, Initial residual = 0.0177094, Final residual = 3.58261e-05, No Iterations 1
time step continuity errors : sum local = 0.00527534, global = -4.10656e-18, cumulative = -1.14264e-14
GAMG:  Solving for p_rgh, Initial residual = 4.0955e-05, Final residual = 3.84887e-07, No Iterations 4
time step continuity errors : sum local = 5.65299e-05, global = 1.2349e-17, cumulative = -1.1414e-14
GAMG:  Solving for p_rgh, Initial residual = 5.59152e-06, Final residual = 8.0775e-09, No Iterations 11
time step continuity errors : sum local = 1.18744e-06, global = 2.44528e-17, cumulative = -1.13896e-14
ExecutionTime = 10431.8 s  ClockTime = 10451 s

Courant Number mean: 0.0182842 max: 0.847869
Interface Courant Number mean: 0.000129544 max: 0.308098
deltaT = 0.0107194
Time = 19

PIMPLE: iteration 1
MULES: Solving for alpha.water
Phase-1 volume fraction = 0.672727  Min(alpha.water) = 6.81075e-236  Max(alpha.water) = 1.01012
MULES: Solving for alpha.water
Phase-1 volume fraction = 0.672727  Min(alpha.water) = 6.94115e-236  Max(alpha.water) = 1.01012
MULES: Solving for alpha.water
Phase-1 volume fraction = 0.672727  Min(alpha.water) = 7.07409e-236  Max(alpha.water) = 1.01012
GAMG:  Solving for p_rgh, Initial residual = 0.0177326, Final residual = 3.45519e-05, No Iterations 1
time step continuity errors : sum local = 0.00509309, global = 2.5744e-17, cumulative = -1.13638e-14
GAMG:  Solving for p_rgh, Initial residual = 3.96381e-05, Final residual = 3.53158e-07, No Iterations 4
time step continuity errors : sum local = 5.19271e-05, global = 1.99727e-17, cumulative = -1.13439e-14
GAMG:  Solving for p_rgh, Initial residual = 5.48367e-06, Final residual = 9.59256e-09, No Iterations 11
time step continuity errors : sum local = 1.41383e-06, global = -9.48296e-18, cumulative = -1.13534e-14
ExecutionTime = 10437.5 s  ClockTime = 10457 s

Courant Number mean: 0.0181506 max: 0.860001
Interface Courant Number mean: 0.000129356 max: 0.307687
deltaT = 0.0111111
Time = 19.0111

PIMPLE: iteration 1
MULES: Solving for alpha.water
Phase-1 volume fraction = 0.672727  Min(alpha.water) = 7.07411e-236  Max(alpha.water) = 1.01012
MULES: Solving for alpha.water
Phase-1 volume fraction = 0.672727  Min(alpha.water) = 7.07413e-236  Max(alpha.water) = 1.01011
MULES: Solving for alpha.water
Phase-1 volume fraction = 0.672727  Min(alpha.water) = 7.07415e-236  Max(alpha.water) = 1.01011
GAMG:  Solving for p_rgh, Initial residual = 0.0183851, Final residual = 3.74979e-05, No Iterations 1
time step continuity errors : sum local = 0.00586162, global = 7.35943e-19, cumulative = -1.13526e-14
GAMG:  Solving for p_rgh, Initial residual = 4.29987e-05, Final residual = 3.75198e-07, No Iterations 4
time step continuity errors : sum local = 5.85033e-05, global = -3.09485e-17, cumulative = -1.13836e-14
GAMG:  Solving for p_rgh, Initial residual = 5.98259e-06, Final residual = 6.85862e-09, No Iterations 25
time step continuity errors : sum local = 1.06975e-06, global = -7.76791e-18, cumulative = -1.13913e-14
ExecutionTime = 10443.2 s  ClockTime = 10463 s

Courant Number mean: 0.0189027 max: 0.930882
Interface Courant Number mean: 0.000133623 max: 0.317991
deltaT = 0.00987654
Time = 19.021

PIMPLE: iteration 1
MULES: Solving for alpha.water
Phase-1 volume fraction = 0.672727  Min(alpha.water) = 7.0879e-236  Max(alpha.water) = 1.01011
MULES: Solving for alpha.water
Phase-1 volume fraction = 0.672727  Min(alpha.water) = 7.10169e-236  Max(alpha.water) = 1.01011
MULES: Solving for alpha.water
Phase-1 volume fraction = 0.672727  Min(alpha.water) = 7.11554e-236  Max(alpha.water) = 1.01011
GAMG:  Solving for p_rgh, Initial residual = 0.0162105, Final residual = 3.19587e-05, No Iterations 1
time step continuity errors : sum local = 0.00411997, global = -1.99732e-17, cumulative = -1.14113e-14
GAMG:  Solving for p_rgh, Initial residual = 3.62817e-05, Final residual = 3.02431e-07, No Iterations 4
time step continuity errors : sum local = 3.89017e-05, global = -5.36599e-18, cumulative = -1.14167e-14
GAMG:  Solving for p_rgh, Initial residual = 4.70179e-06, Final residual = 7.80217e-09, No Iterations 13
time step continuity errors : sum local = 1.00568e-06, global = -5.03269e-18, cumulative = -1.14217e-14
ExecutionTime = 10447.8 s  ClockTime = 10467 s

Courant Number mean: 0.0167301 max: 0.840542
Interface Courant Number mean: 0.000119042 max: 0.282745
deltaT = 0.00987654
Time = 19.0309

PIMPLE: iteration 1
MULES: Solving for alpha.water
Phase-1 volume fraction = 0.672727  Min(alpha.water) = 7.1385e-236  Max(alpha.water) = 1.01011
MULES: Solving for alpha.water
Phase-1 volume fraction = 0.672727  Min(alpha.water) = 7.16149e-236  Max(alpha.water) = 1.01011
MULES: Solving for alpha.water
Phase-1 volume fraction = 0.672727  Min(alpha.water) = 7.18453e-236  Max(alpha.water) = 1.01011
GAMG:  Solving for p_rgh, Initial residual = 0.0162015, Final residual = 3.33345e-05, No Iterations 1
time step continuity errors : sum local = 0.00429913, global = -2.14619e-17, cumulative = -1.14432e-14
GAMG:  Solving for p_rgh, Initial residual = 3.77162e-05, Final residual = 3.16667e-07, No Iterations 4
time step continuity errors : sum local = 4.07563e-05, global = -1.37233e-17, cumulative = -1.14569e-14
GAMG:  Solving for p_rgh, Initial residual = 4.84391e-06, Final residual = 8.52241e-09, No Iterations 14
time step continuity errors : sum local = 1.09781e-06, global = -2.27969e-17, cumulative = -1.14797e-14
ExecutionTime = 10452.6 s  ClockTime = 10472 s

Courant Number mean: 0.0168148 max: 0.891797
Interface Courant Number mean: 0.000118852 max: 0.283801
deltaT = 0.00987654
Time = 19.0407

PIMPLE: iteration 1
MULES: Solving for alpha.water
Phase-1 volume fraction = 0.672727  Min(alpha.water) = 7.33203e-236  Max(alpha.water) = 1.01011
MULES: Solving for alpha.water
Phase-1 volume fraction = 0.672727  Min(alpha.water) = 7.48278e-236  Max(alpha.water) = 1.01011
MULES: Solving for alpha.water
Phase-1 volume fraction = 0.672727  Min(alpha.water) = 7.63686e-236  Max(alpha.water) = 1.01011
GAMG:  Solving for p_rgh, Initial residual = 0.0162302, Final residual = 3.18933e-05, No Iterations 1
time step continuity errors : sum local = 0.00411808, global = -1.94369e-17, cumulative = -1.14991e-14
GAMG:  Solving for p_rgh, Initial residual = 3.62295e-05, Final residual = 3.04134e-07, No Iterations 4
time step continuity errors : sum local = 3.91813e-05, global = -3.16831e-17, cumulative = -1.15308e-14
