/*---------------------------------------------------------------------------*\
| =========                 |                                                 |
| \\      /  F ield         | OpenFOAM: The Open Source CFD Toolbox           |
|  \\    /   O peration     | Version:  4.1                                   |
|   \\  /    A nd           | Web:      www.OpenFOAM.org                      |
|    \\/     M anipulation  |                                                 |
\*---------------------------------------------------------------------------*/
Build  : 4.1
Exec   : decomposePar -force
Date   : Feb 14 2019
Time   : 12:35:17
Host   : "RN10"
PID    : 19067
Case   : /home/rn10/OpenFOAM/Tanks/2019/RerunsForIMPSRC/L_1b4L_H_5b4d/Shallow_d0p74_H0p03_T5p582
nProcs : 1
sigFpe : Enabling floating point exception trapping (FOAM_SIGFPE).
fileModificationChecking : Monitoring run-time modified files using timeStampMaster
allowSystemOperations : Allowing user-supplied system call operations

// * * * * * * * * * * * * * * * * * * * * * * * * * * * * * * * * * * * * * //
Create time



Decomposing mesh region0

Create mesh

Calculating distribution of cells
Selecting decompositionMethod scotch

Finished decomposition in 1.61 s

Calculating original mesh data

Distributing cells to processors

Distributing faces to processors

Distributing points to processors

Constructing processor meshes

Processor 0
    Number of cells = 95660
    Number of faces shared with processor 1 = 141
    Number of faces shared with processor 9 = 155
    Number of processor patches = 2
    Number of processor faces = 296
    Number of boundary faces = 192986

Processor 1
    Number of cells = 95775
    Number of faces shared with processor 0 = 141
    Number of faces shared with processor 2 = 151
    Number of processor patches = 2
    Number of processor faces = 292
    Number of boundary faces = 192934

Processor 2
    Number of cells = 96563
    Number of faces shared with processor 1 = 151
    Number of faces shared with processor 4 = 156
    Number of processor patches = 2
    Number of processor faces = 307
    Number of boundary faces = 194527

Processor 3
    Number of cells = 95945
    Number of faces shared with processor 5 = 147
    Number of faces shared with processor 6 = 169
    Number of processor patches = 2
    Number of processor faces = 316
    Number of boundary faces = 193272

Processor 4
    Number of cells = 95975
    Number of faces shared with processor 2 = 156
    Number of faces shared with processor 5 = 159
    Number of processor patches = 2
    Number of processor faces = 315
    Number of boundary faces = 193351

Processor 5
    Number of cells = 95345
    Number of faces shared with processor 3 = 147
    Number of faces shared with processor 4 = 159
    Number of processor patches = 2
    Number of processor faces = 306
    Number of boundary faces = 192070

Processor 6
    Number of cells = 95245
    Number of faces shared with processor 3 = 169
    Number of faces shared with processor 7 = 146
    Number of processor patches = 2
    Number of processor faces = 315
    Number of boundary faces = 191877

Processor 7
    Number of cells = 95939
    Number of faces shared with processor 6 = 146
    Number of faces shared with processor 8 = 164
    Number of processor patches = 2
    Number of processor faces = 310
    Number of boundary faces = 193266

Processor 8
    Number of cells = 95152
    Number of faces shared with processor 7 = 164
    Number of faces shared with processor 11 = 149
    Number of processor patches = 2
    Number of processor faces = 313
    Number of boundary faces = 191681

Processor 9
    Number of cells = 95771
    Number of faces shared with processor 0 = 155
    Number of faces shared with processor 10 = 148
    Number of processor patches = 2
    Number of processor faces = 303
    Number of boundary faces = 192931

Processor 10
    Number of cells = 95136
    Number of faces shared with processor 9 = 148
    Number of faces shared with processor 11 = 149
    Number of processor patches = 2
    Number of processor faces = 297
    Number of boundary faces = 191647

Processor 11
    Number of cells = 95654
    Number of faces shared with processor 8 = 149
    Number of faces shared with processor 10 = 149
    Number of processor patches = 2
    Number of processor faces = 298
    Number of boundary faces = 192694

Number of processor faces = 1834
Max number of cells = 96563 (0.922868% above average 95680)
Max number of processor patches = 2 (0% above average 2)
Max number of faces between processors = 316 (3.38059% above average 305.667)

Time = 0

Processor 0: field transfer
Processor 1: field transfer
Processor 2: field transfer
Processor 3: field transfer
Processor 4: field transfer
Processor 5: field transfer
Processor 6: field transfer
Processor 7: field transfer
Processor 8: field transfer
Processor 9: field transfer
Processor 10: field transfer
Processor 11: field transfer

End

/*---------------------------------------------------------------------------*\
| =========                 |                                                 |
| \\      /  F ield         | OpenFOAM: The Open Source CFD Toolbox           |
|  \\    /   O peration     | Version:  4.1                                   |
|   \\  /    A nd           | Web:      www.OpenFOAM.org                      |
|    \\/     M anipulation  |                                                 |
\*---------------------------------------------------------------------------*/
Build  : 4.1
Exec   : renumberMesh -parallel -overwrite
Date   : Feb 14 2019
Time   : 12:35:46
Host   : "RN10"
PID    : 19084
Case   : /home/rn10/OpenFOAM/Tanks/2019/RerunsForIMPSRC/L_1b4L_H_5b4d/Shallow_d0p74_H0p03_T5p582
nProcs : 12
Slaves : 
11
(
"RN10.19085"
"RN10.19086"
"RN10.19087"
"RN10.19088"
"RN10.19089"
"RN10.19090"
"RN10.19091"
"RN10.19092"
"RN10.19093"
"RN10.19094"
"RN10.19095"
)

Pstream initialized with:
    floatTransfer      : 0
    nProcsSimpleSum    : 0
    commsType          : nonBlocking
    polling iterations : 0
sigFpe : Enabling floating point exception trapping (FOAM_SIGFPE).
fileModificationChecking : Monitoring run-time modified files using timeStampMaster
allowSystemOperations : Allowing user-supplied system call operations

// * * * * * * * * * * * * * * * * * * * * * * * * * * * * * * * * * * * * * //
Create time

Create mesh for time = 0

Mesh size: 1148160
Before renumbering :
    band           : 41557
    profile        : 6.93251e+09

Using default renumberMethod.

Selecting renumberMethod CuthillMcKee

Reading volScalarField nut
Reading volScalarField p_rgh
Reading volScalarField sand
Reading volScalarField alpha.water.orig
Reading volScalarField relax
Reading volScalarField k
Reading volScalarField omega
Reading volScalarField alpha.water
Reading volVectorField Uana
Reading volVectorField U

Renumbering processor cell decomposition map cellProcAddressing
Renumbering processor face decomposition map faceProcAddressing
Renumbering processor point decomposition map pointProcAddressing
After renumbering :
    band           : 167
    profile        : 1.49749e+08

Writing mesh to "constant"

Renumbering cellSets:
    refinedCells
    surface1
    surface2
End

Finalising parallel run
