/*---------------------------------------------------------------------------*\
| =========                 |                                                 |
| \\      /  F ield         | OpenFOAM: The Open Source CFD Toolbox           |
|  \\    /   O peration     | Version:  4.1                                   |
|   \\  /    A nd           | Web:      www.OpenFOAM.org                      |
|    \\/     M anipulation  |                                                 |
\*---------------------------------------------------------------------------*/
Build  : 4.1
Exec   : interDyMFoamUsrc -parallel
Date   : Feb 13 2019
Time   : 15:44:58
Host   : "RN10"
PID    : 12223
Case   : /home/rn10/OpenFOAM/Tanks/2019/RerunsForIMPSRC/L_1b4L_H_5b4d/Shallow_H0p002
nProcs : 10
Slaves : 
9
(
"RN10.12224"
"RN10.12225"
"RN10.12226"
"RN10.12227"
"RN10.12228"
"RN10.12229"
"RN10.12230"
"RN10.12231"
"RN10.12232"
)

Pstream initialized with:
    floatTransfer      : 0
    nProcsSimpleSum    : 0
    commsType          : nonBlocking
    polling iterations : 0
sigFpe : Enabling floating point exception trapping (FOAM_SIGFPE).
fileModificationChecking : Monitoring run-time modified files using timeStampMaster
allowSystemOperations : Allowing user-supplied system call operations

// * * * * * * * * * * * * * * * * * * * * * * * * * * * * * * * * * * * * * //
Create time

Create mesh for time = 0

Selecting dynamicFvMesh staticFvMesh

PIMPLE: Operating solver in PISO mode

Reading field p_rgh

Reading field U

Reading/calculating face flux field phi

Reading field sand

Reading field Uana

Reading transportProperties

Selecting incompressible transport model Newtonian
Selecting incompressible transport model Newtonian
Reading field relax

Selecting turbulence model type laminar

Reading g

Reading hRef
Calculating field g.h

No MRF models present

Writing 0 cells to cellSet relaxCells
No finite volume options present

GAMG:  Solving for pcorr, Initial residual = 0, Final residual = 0, No Iterations 0
time step continuity errors : sum local = 0, global = 0, cumulative = 0
Reading/calculating face velocity Uf

Courant Number mean: 0 max: 0

Starting time loop

--> FOAM Warning : 
    From function void Foam::timeControl::read(const Foam::dictionary&)
    in file db/functionObjects/timeControl/timeControl.C at line 89
    Reading "/home/rn10/OpenFOAM/Tanks/2019/RerunsForIMPSRC/L_1b4L_H_5b4d/Shallow_H0p002/system/controlDict.functions.waveprobes" from line 66 to line 88
    Using deprecated 'outputControl'
    Please use 'writeControl' with 'writeInterval'
Courant Number mean: 0 max: 0
Interface Courant Number mean: 0 max: 0
deltaT = 0.00119904
Time = 0.00119904

PIMPLE: iteration 1
MULES: Solving for alpha.water
Phase-1 volume fraction = 0.402397  Min(alpha.water) = 0  Max(alpha.water) = 1
MULES: Solving for alpha.water
Phase-1 volume fraction = 0.402397  Min(alpha.water) = 0  Max(alpha.water) = 1
MULES: Solving for alpha.water
Phase-1 volume fraction = 0.402397  Min(alpha.water) = 0  Max(alpha.water) = 1
GAMG:  Solving for p_rgh, Initial residual = 1, Final residual = 0.00268295, No Iterations 1
time step continuity errors : sum local = 0.00376595, global = -6.37549e-18, cumulative = -6.37549e-18
GAMG:  Solving for p_rgh, Initial residual = 0.00217922, Final residual = 1.14869e-05, No Iterations 6
time step continuity errors : sum local = 3.23711e-05, global = 1.0573e-19, cumulative = -6.26976e-18
GAMG:  Solving for p_rgh, Initial residual = 0.000969851, Final residual = 9.99009e-09, No Iterations 21
time step continuity errors : sum local = 2.807e-08, global = 7.93703e-20, cumulative = -6.19039e-18
ExecutionTime = 11.11 s  ClockTime = 11 s

Courant Number mean: 0.000264287 max: 0.0877186
Interface Courant Number mean: 0 max: 0
deltaT = 0.00143712
Time = 0.00263616

PIMPLE: iteration 1
MULES: Solving for alpha.water
Phase-1 volume fraction = 0.402397  Min(alpha.water) = 0  Max(alpha.water) = 1
MULES: Solving for alpha.water
Phase-1 volume fraction = 0.402397  Min(alpha.water) = 0  Max(alpha.water) = 1
MULES: Solving for alpha.water
Phase-1 volume fraction = 0.402397  Min(alpha.water) = 0  Max(alpha.water) = 1
GAMG:  Solving for p_rgh, Initial residual = 0.00179934, Final residual = 1.09567e-05, No Iterations 1
time step continuity errors : sum local = 3.69651e-05, global = -5.26846e-20, cumulative = -6.24307e-18
GAMG:  Solving for p_rgh, Initial residual = 3.49865e-05, Final residual = 1.40978e-07, No Iterations 4
time step continuity errors : sum local = 4.7602e-07, global = 2.90837e-21, cumulative = -6.24016e-18
GAMG:  Solving for p_rgh, Initial residual = 1.5367e-05, Final residual = 8.56345e-09, No Iterations 7
time step continuity errors : sum local = 2.89052e-08, global = 1.9726e-19, cumulative = -6.0429e-18
ExecutionTime = 16.2 s  ClockTime = 16 s

Courant Number mean: 0.000259891 max: 0.0940327
Interface Courant Number mean: 0 max: 0
deltaT = 0.00172256
Time = 0.00435873

PIMPLE: iteration 1
MULES: Solving for alpha.water
Phase-1 volume fraction = 0.402397  Min(alpha.water) = 0  Max(alpha.water) = 1
MULES: Solving for alpha.water
Phase-1 volume fraction = 0.402397  Min(alpha.water) = 0  Max(alpha.water) = 1.00001
MULES: Solving for alpha.water
Phase-1 volume fraction = 0.402397  Min(alpha.water) = 0  Max(alpha.water) = 1.00001
GAMG:  Solving for p_rgh, Initial residual = 0.0016151, Final residual = 8.03014e-06, No Iterations 1
time step continuity errors : sum local = 3.26417e-05, global = 2.72629e-19, cumulative = -5.77027e-18
GAMG:  Solving for p_rgh, Initial residual = 1.31889e-05, Final residual = 6.15181e-08, No Iterations 4
time step continuity errors : sum local = 2.5017e-07, global = 8.24383e-20, cumulative = -5.68784e-18
GAMG:  Solving for p_rgh, Initial residual = 4.64928e-06, Final residual = 5.17048e-09, No Iterations 6
time step continuity errors : sum local = 2.10331e-08, global = 2.93395e-19, cumulative = -5.39444e-18
ExecutionTime = 21.13 s  ClockTime = 21 s

Courant Number mean: 0.000273156 max: 0.106031
Interface Courant Number mean: 0 max: 0
deltaT = 0.00206565
Time = 0.00642437

PIMPLE: iteration 1
MULES: Solving for alpha.water
Phase-1 volume fraction = 0.402397  Min(alpha.water) = 0  Max(alpha.water) = 1.00001
MULES: Solving for alpha.water
Phase-1 volume fraction = 0.402397  Min(alpha.water) = 0  Max(alpha.water) = 1.00001
MULES: Solving for alpha.water
Phase-1 volume fraction = 0.402397  Min(alpha.water) = 0  Max(alpha.water) = 1.00001
GAMG:  Solving for p_rgh, Initial residual = 0.00163572, Final residual = 7.13793e-06, No Iterations 1
time step continuity errors : sum local = 3.50366e-05, global = 2.57093e-19, cumulative = -5.13735e-18
GAMG:  Solving for p_rgh, Initial residual = 1.05064e-05, Final residual = 7.54339e-08, No Iterations 4
time step continuity errors : sum local = 3.703e-07, global = 4.64988e-19, cumulative = -4.67236e-18
GAMG:  Solving for p_rgh, Initial residual = 3.81301e-06, Final residual = 7.97728e-09, No Iterations 5
time step continuity errors : sum local = 3.92054e-08, global = 2.54472e-19, cumulative = -4.41789e-18
ExecutionTime = 25.71 s  ClockTime = 26 s

Courant Number mean: 0.000298099 max: 0.119587
Interface Courant Number mean: 1.75329e-09 max: 0.00453525
deltaT = 0.00247774
Time = 0.00890212

PIMPLE: iteration 1
MULES: Solving for alpha.water
Phase-1 volume fraction = 0.402397  Min(alpha.water) = 0  Max(alpha.water) = 1.00001
MULES: Solving for alpha.water
Phase-1 volume fraction = 0.402397  Min(alpha.water) = 0  Max(alpha.water) = 1.00001
MULES: Solving for alpha.water
Phase-1 volume fraction = 0.402397  Min(alpha.water) = 0  Max(alpha.water) = 1.00001
GAMG:  Solving for p_rgh, Initial residual = 0.00168453, Final residual = 6.68689e-06, No Iterations 1
time step continuity errors : sum local = 3.96969e-05, global = -1.27521e-19, cumulative = -4.54541e-18
GAMG:  Solving for p_rgh, Initial residual = 1.01004e-05, Final residual = 7.3716e-08, No Iterations 4
time step continuity errors : sum local = 4.37677e-07, global = 2.52183e-19, cumulative = -4.29323e-18
GAMG:  Solving for p_rgh, Initial residual = 4.0569e-06, Final residual = 9.76172e-09, No Iterations 5
time step continuity errors : sum local = 5.7968e-08, global = 4.32022e-19, cumulative = -3.8612e-18
ExecutionTime = 29.95 s  ClockTime = 30 s

Courant Number mean: 0.000332077 max: 0.135511
Interface Courant Number mean: 4.06709e-09 max: 0.00595856
deltaT = 0.00296736
Time = 0.0118695

PIMPLE: iteration 1
MULES: Solving for alpha.water
Phase-1 volume fraction = 0.402397  Min(alpha.water) = 0  Max(alpha.water) = 1.00001
MULES: Solving for alpha.water
Phase-1 volume fraction = 0.402397  Min(alpha.water) = 0  Max(alpha.water) = 1.00001
MULES: Solving for alpha.water
Phase-1 volume fraction = 0.402397  Min(alpha.water) = 0  Max(alpha.water) = 1.00001
GAMG:  Solving for p_rgh, Initial residual = 0.00178867, Final residual = 6.14052e-06, No Iterations 1
time step continuity errors : sum local = 4.40579e-05, global = 4.65406e-19, cumulative = -3.3958e-18
GAMG:  Solving for p_rgh, Initial residual = 9.94368e-06, Final residual = 8.77907e-08, No Iterations 4
time step continuity errors : sum local = 6.29903e-07, global = 4.8247e-19, cumulative = -2.91333e-18
GAMG:  Solving for p_rgh, Initial residual = 4.39195e-06, Final residual = 4.69486e-09, No Iterations 6
time step continuity errors : sum local = 3.36904e-08, global = 7.35862e-19, cumulative = -2.17747e-18
ExecutionTime = 34.92 s  ClockTime = 35 s

Courant Number mean: 0.000376699 max: 0.15412
Interface Courant Number mean: 9.30076e-09 max: 0.00645496
deltaT = 0.00355443
Time = 0.0154239

PIMPLE: iteration 1
MULES: Solving for alpha.water
Phase-1 volume fraction = 0.402397  Min(alpha.water) = 0  Max(alpha.water) = 1.00001
MULES: Solving for alpha.water
Phase-1 volume fraction = 0.402397  Min(alpha.water) = 0  Max(alpha.water) = 1.00001
MULES: Solving for alpha.water
Phase-1 volume fraction = 0.402397  Min(alpha.water) = 0  Max(alpha.water) = 1.00002
GAMG:  Solving for p_rgh, Initial residual = 0.0019208, Final residual = 7.88568e-06, No Iterations 1
time step continuity errors : sum local = 6.84596e-05, global = 5.66743e-19, cumulative = -1.61072e-18
GAMG:  Solving for p_rgh, Initial residual = 1.18481e-05, Final residual = 1.05801e-07, No Iterations 4
time step continuity errors : sum local = 9.18322e-07, global = 1.65476e-19, cumulative = -1.44525e-18
GAMG:  Solving for p_rgh, Initial residual = 4.77883e-06, Final residual = 6.16819e-09, No Iterations 6
time step continuity errors : sum local = 5.35855e-08, global = 1.08806e-18, cumulative = -3.57192e-19
ExecutionTime = 39.86 s  ClockTime = 40 s

Courant Number mean: 0.000433836 max: 0.175895
Interface Courant Number mean: 1.78557e-08 max: 0.00754552
deltaT = 0.00426223
Time = 0.0196861

PIMPLE: iteration 1
MULES: Solving for alpha.water
Phase-1 volume fraction = 0.402397  Min(alpha.water) = 0  Max(alpha.water) = 1.00002
MULES: Solving for alpha.water
Phase-1 volume fraction = 0.402397  Min(alpha.water) = 0  Max(alpha.water) = 1.00002
MULES: Solving for alpha.water
Phase-1 volume fraction = 0.402397  Min(alpha.water) = 0  Max(alpha.water) = 1.00002
GAMG:  Solving for p_rgh, Initial residual = 0.00215616, Final residual = 9.62182e-06, No Iterations 1
time step continuity errors : sum local = 0.000101272, global = 9.24597e-19, cumulative = 5.67405e-19
GAMG:  Solving for p_rgh, Initial residual = 1.43115e-05, Final residual = 1.14978e-07, No Iterations 4
time step continuity errors : sum local = 1.20992e-06, global = 2.81576e-19, cumulative = 8.48981e-19
GAMG:  Solving for p_rgh, Initial residual = 5.8701e-06, Final residual = 7.41538e-09, No Iterations 6
time step continuity errors : sum local = 7.81623e-08, global = 6.39334e-19, cumulative = 1.48832e-18
ExecutionTime = 44.89 s  ClockTime = 45 s

Courant Number mean: 0.000516665 max: 0.201675
Interface Courant Number mean: 3.11317e-08 max: 0.00667572
deltaT = 0.0051058
Time = 0.0247919

PIMPLE: iteration 1
MULES: Solving for alpha.water
Phase-1 volume fraction = 0.402397  Min(alpha.water) = 0  Max(alpha.water) = 1.00002
MULES: Solving for alpha.water
Phase-1 volume fraction = 0.402397  Min(alpha.water) = 0  Max(alpha.water) = 1.00002
MULES: Solving for alpha.water
Phase-1 volume fraction = 0.402397  Min(alpha.water) = 0  Max(alpha.water) = 1.00002
GAMG:  Solving for p_rgh, Initial residual = 0.00254397, Final residual = 1.39411e-05, No Iterations 1
time step continuity errors : sum local = 0.000177812, global = 4.13684e-19, cumulative = 1.902e-18
GAMG:  Solving for p_rgh, Initial residual = 1.89517e-05, Final residual = 1.38145e-07, No Iterations 4
time step continuity errors : sum local = 1.76244e-06, global = 7.29769e-19, cumulative = 2.63177e-18
GAMG:  Solving for p_rgh, Initial residual = 6.76082e-06, Final residual = 3.81496e-09, No Iterations 7
time step continuity errors : sum local = 4.86533e-08, global = -2.00681e-19, cumulative = 2.43109e-18
ExecutionTime = 49.94 s  ClockTime = 50 s

Courant Number mean: 0.000634347 max: 0.231156
Interface Courant Number mean: 4.73726e-08 max: 0.00959792
deltaT = 0.00609505
Time = 0.030887

PIMPLE: iteration 1
MULES: Solving for alpha.water
Phase-1 volume fraction = 0.402397  Min(alpha.water) = 0  Max(alpha.water) = 1.00002
MULES: Solving for alpha.water
Phase-1 volume fraction = 0.402397  Min(alpha.water) = 0  Max(alpha.water) = 1.00003
MULES: Solving for alpha.water
Phase-1 volume fraction = 0.402397  Min(alpha.water) = 0  Max(alpha.water) = 1.00003
GAMG:  Solving for p_rgh, Initial residual = 0.00295299, Final residual = 1.54147e-05, No Iterations 1
time step continuity errors : sum local = 0.000237499, global = 1.98517e-18, cumulative = 4.41625e-18
GAMG:  Solving for p_rgh, Initial residual = 2.14299e-05, Final residual = 1.3969e-07, No Iterations 4
time step continuity errors : sum local = 2.15187e-06, global = 2.86513e-19, cumulative = 4.70277e-18
GAMG:  Solving for p_rgh, Initial residual = 8.16685e-06, Final residual = 8.66734e-09, No Iterations 6
time step continuity errors : sum local = 1.33507e-07, global = 1.42836e-19, cumulative = 4.8456e-18
ExecutionTime = 54.86 s  ClockTime = 55 s

Courant Number mean: 0.000789356 max: 0.264531
Interface Courant Number mean: 8.93703e-08 max: 0.0135873
deltaT = 0.00728656
Time = 0.0381736

PIMPLE: iteration 1
MULES: Solving for alpha.water
Phase-1 volume fraction = 0.402397  Min(alpha.water) = 0  Max(alpha.water) = 1.00003
MULES: Solving for alpha.water
Phase-1 volume fraction = 0.402397  Min(alpha.water) = 0  Max(alpha.water) = 1.00003
MULES: Solving for alpha.water
Phase-1 volume fraction = 0.402397  Min(alpha.water) = 0  Max(alpha.water) = 1.00002
GAMG:  Solving for p_rgh, Initial residual = 0.0035508, Final residual = 1.5474e-05, No Iterations 1
time step continuity errors : sum local = 0.000288567, global = 8.32137e-19, cumulative = 5.67774e-18
GAMG:  Solving for p_rgh, Initial residual = 2.42654e-05, Final residual = 1.74278e-07, No Iterations 4
time step continuity errors : sum local = 3.24963e-06, global = 2.28713e-19, cumulative = 5.90645e-18
GAMG:  Solving for p_rgh, Initial residual = 1.03577e-05, Final residual = 4.57446e-09, No Iterations 7
time step continuity errors : sum local = 8.53501e-08, global = -1.41444e-19, cumulative = 5.76501e-18
ExecutionTime = 59.92 s  ClockTime = 60 s

Courant Number mean: 0.000928132 max: 0.30459
Interface Courant Number mean: 1.69636e-07 max: 0.0214197
deltaT = 0.0086651
Time = 0.0468387

PIMPLE: iteration 1
MULES: Solving for alpha.water
Phase-1 volume fraction = 0.402397  Min(alpha.water) = 0  Max(alpha.water) = 1.00003
MULES: Solving for alpha.water
Phase-1 volume fraction = 0.402397  Min(alpha.water) = 0  Max(alpha.water) = 1.00004
MULES: Solving for alpha.water
Phase-1 volume fraction = 0.402397  Min(alpha.water) = 0  Max(alpha.water) = 1.00004
GAMG:  Solving for p_rgh, Initial residual = 0.00458716, Final residual = 1.71588e-05, No Iterations 1
time step continuity errors : sum local = 0.000385111, global = 4.07178e-19, cumulative = 6.17219e-18
GAMG:  Solving for p_rgh, Initial residual = 2.81887e-05, Final residual = 1.80333e-07, No Iterations 4
time step continuity errors : sum local = 4.04633e-06, global = 6.50579e-20, cumulative = 6.23724e-18
GAMG:  Solving for p_rgh, Initial residual = 1.29647e-05, Final residual = 5.44659e-09, No Iterations 7
time step continuity errors : sum local = 1.22843e-07, global = 8.89621e-19, cumulative = 7.12686e-18
ExecutionTime = 65.06 s  ClockTime = 65 s

Courant Number mean: 0.00107974 max: 0.350775
Interface Courant Number mean: 4.38609e-07 max: 0.0526792
deltaT = 0.0103604
Time = 0.0571991

PIMPLE: iteration 1
MULES: Solving for alpha.water
Phase-1 volume fraction = 0.402397  Min(alpha.water) = 0  Max(alpha.water) = 1.00004
MULES: Solving for alpha.water
Phase-1 volume fraction = 0.402397  Min(alpha.water) = 0  Max(alpha.water) = 1.00004
MULES: Solving for alpha.water
Phase-1 volume fraction = 0.402397  Min(alpha.water) = 0  Max(alpha.water) = 1.00004
GAMG:  Solving for p_rgh, Initial residual = 0.0147953, Final residual = 7.37536e-05, No Iterations 1
time step continuity errors : sum local = 0.001994, global = 7.04766e-19, cumulative = 7.83163e-18
GAMG:  Solving for p_rgh, Initial residual = 0.000112718, Final residual = 8.48743e-07, No Iterations 4
time step continuity errors : sum local = 2.29313e-05, global = 5.91391e-18, cumulative = 1.37455e-17
GAMG:  Solving for p_rgh, Initial residual = 4.5272e-05, Final residual = 9.70475e-09, No Iterations 8
time step continuity errors : sum local = 2.62334e-07, global = 5.15189e-18, cumulative = 1.88974e-17
ExecutionTime = 70.2 s  ClockTime = 71 s

Courant Number mean: 0.00183996 max: 0.644469
Interface Courant Number mean: 8.22044e-06 max: 0.441207
deltaT = 0.011785
Time = 0.0689841

PIMPLE: iteration 1
MULES: Solving for alpha.water
Phase-1 volume fraction = 0.402397  Min(alpha.water) = 0  Max(alpha.water) = 1.00007
MULES: Solving for alpha.water
Phase-1 volume fraction = 0.402397  Min(alpha.water) = 0  Max(alpha.water) = 1.00013
MULES: Solving for alpha.water
Phase-1 volume fraction = 0.402397  Min(alpha.water) = 0  Max(alpha.water) = 1.00018
GAMG:  Solving for p_rgh, Initial residual = 0.103351, Final residual = 0.000423757, No Iterations 1
time step continuity errors : sum local = 0.0124008, global = -9.32126e-19, cumulative = 1.79653e-17
GAMG:  Solving for p_rgh, Initial residual = 0.000682466, Final residual = 4.30931e-06, No Iterations 4
time step continuity errors : sum local = 0.000124719, global = 4.85472e-18, cumulative = 2.282e-17
GAMG:  Solving for p_rgh, Initial residual = 0.000323098, Final residual = 7.08551e-09, No Iterations 15
time step continuity errors : sum local = 2.05183e-07, global = -8.15457e-19, cumulative = 2.20046e-17
ExecutionTime = 76.1 s  ClockTime = 76 s

Courant Number mean: 0.00873521 max: 6.07433
Interface Courant Number mean: 0.000360409 max: 5.86915
deltaT = 0.00174348
Time = 0.0707276

PIMPLE: iteration 1
MULES: Solving for alpha.water
Phase-1 volume fraction = 0.402397  Min(alpha.water) = 0  Max(alpha.water) = 1.00018
MULES: Solving for alpha.water
Phase-1 volume fraction = 0.402397  Min(alpha.water) = 0  Max(alpha.water) = 1.00018
MULES: Solving for alpha.water
Phase-1 volume fraction = 0.402397  Min(alpha.water) = 0  Max(alpha.water) = 1.00018
GAMG:  Solving for p_rgh, Initial residual = 0.220423, Final residual = 0.000699564, No Iterations 1
time step continuity errors : sum local = 0.0017022, global = -2.78366e-19, cumulative = 2.17262e-17
GAMG:  Solving for p_rgh, Initial residual = 0.000983863, Final residual = 4.55427e-06, No Iterations 4
time step continuity errors : sum local = 1.08994e-05, global = 1.42362e-19, cumulative = 2.18686e-17
GAMG:  Solving for p_rgh, Initial residual = 0.00030342, Final residual = 8.22462e-09, No Iterations 11
time step continuity errors : sum local = 1.96868e-08, global = -6.09975e-20, cumulative = 2.18076e-17
ExecutionTime = 81.65 s  ClockTime = 82 s

Courant Number mean: 0.0009033 max: 0.665342
Interface Courant Number mean: 6.04563e-05 max: 0.478613
deltaT = 0.00197718
Time = 0.0727048

PIMPLE: iteration 1
MULES: Solving for alpha.water
Phase-1 volume fraction = 0.402397  Min(alpha.water) = 0  Max(alpha.water) = 1.00018
MULES: Solving for alpha.water
Phase-1 volume fraction = 0.402397  Min(alpha.water) = 0  Max(alpha.water) = 1.00018
MULES: Solving for alpha.water
Phase-1 volume fraction = 0.402397  Min(alpha.water) = 0  Max(alpha.water) = 1.00018
GAMG:  Solving for p_rgh, Initial residual = 0.125318, Final residual = 0.000416381, No Iterations 1
time step continuity errors : sum local = 0.00127567, global = 1.24625e-19, cumulative = 2.19322e-17
GAMG:  Solving for p_rgh, Initial residual = 0.000600456, Final residual = 3.38415e-06, No Iterations 4
time step continuity errors : sum local = 1.07638e-05, global = -1.10097e-20, cumulative = 2.19212e-17
GAMG:  Solving for p_rgh, Initial residual = 0.000224868, Final residual = 6.64051e-09, No Iterations 14
time step continuity errors : sum local = 2.11133e-08, global = -9.61447e-20, cumulative = 2.1825e-17
ExecutionTime = 87.56 s  ClockTime = 88 s

Courant Number mean: 0.000734057 max: 3.92
Interface Courant Number mean: 9.11989e-06 max: 3.92
deltaT = 0.000453889
Time = 0.0731587

PIMPLE: iteration 1
MULES: Solving for alpha.water
Phase-1 volume fraction = 0.402397  Min(alpha.water) = 0  Max(alpha.water) = 1.00018
MULES: Solving for alpha.water
Phase-1 volume fraction = 0.402397  Min(alpha.water) = 0  Max(alpha.water) = 1.00018
MULES: Solving for alpha.water
Phase-1 volume fraction = 0.402397  Min(alpha.water) = 0  Max(alpha.water) = 1.00018
GAMG:  Solving for p_rgh, Initial residual = 0.00408101, Final residual = 1.52695e-05, No Iterations 1
time step continuity errors : sum local = 8.58053e-06, global = -2.25375e-20, cumulative = 2.18025e-17
GAMG:  Solving for p_rgh, Initial residual = 1.90348e-05, Final residual = 7.34524e-08, No Iterations 4
time step continuity errors : sum local = 4.13203e-08, global = -3.26207e-20, cumulative = 2.17699e-17
GAMG:  Solving for p_rgh, Initial residual = 4.33417e-06, Final residual = 8.85883e-09, No Iterations 5
time step continuity errors : sum local = 5.00104e-09, global = -2.22069e-20, cumulative = 2.17477e-17
ExecutionTime = 91.49 s  ClockTime = 92 s

Courant Number mean: 0.00013864 max: 0.276477
Interface Courant Number mean: 1.63042e-06 max: 0.0876632
deltaT = 0.00054456
Time = 0.0737032

PIMPLE: iteration 1
MULES: Solving for alpha.water
Phase-1 volume fraction = 0.402397  Min(alpha.water) = 0  Max(alpha.water) = 1.00018
MULES: Solving for alpha.water
Phase-1 volume fraction = 0.402397  Min(alpha.water) = 0  Max(alpha.water) = 1.00018
MULES: Solving for alpha.water
Phase-1 volume fraction = 0.402397  Min(alpha.water) = 0  Max(alpha.water) = 1.00018
GAMG:  Solving for p_rgh, Initial residual = 0.00418755, Final residual = 1.47111e-05, No Iterations 1
time step continuity errors : sum local = 1.04978e-05, global = -2.46192e-20, cumulative = 2.17231e-17
GAMG:  Solving for p_rgh, Initial residual = 1.91955e-05, Final residual = 9.49518e-08, No Iterations 4
time step continuity errors : sum local = 6.78383e-08, global = -2.22038e-20, cumulative = 2.17009e-17
GAMG:  Solving for p_rgh, Initial residual = 5.02914e-06, Final residual = 6.90883e-09, No Iterations 5
time step continuity errors : sum local = 4.94386e-09, global = -2.19594e-20, cumulative = 2.16789e-17
ExecutionTime = 96.41 s  ClockTime = 97 s

Courant Number mean: 0.000141673 max: 0.232503
Interface Courant Number mean: 1.69154e-06 max: 0.0507574
deltaT = 0.000653242
Time = 0.0743565

PIMPLE: iteration 1
MULES: Solving for alpha.water
Phase-1 volume fraction = 0.402397  Min(alpha.water) = 0  Max(alpha.water) = 1.00018
MULES: Solving for alpha.water
Phase-1 volume fraction = 0.402397  Min(alpha.water) = 0  Max(alpha.water) = 1.00018
MULES: Solving for alpha.water
Phase-1 volume fraction = 0.402397  Min(alpha.water) = 0  Max(alpha.water) = 1.00018
GAMG:  Solving for p_rgh, Initial residual = 0.00413972, Final residual = 1.17202e-05, No Iterations 1
time step continuity errors : sum local = 1.04471e-05, global = -2.46497e-20, cumulative = 2.16542e-17
GAMG:  Solving for p_rgh, Initial residual = 1.5163e-05, Final residual = 6.41065e-08, No Iterations 4
time step continuity errors : sum local = 5.71153e-08, global = -2.4992e-20, cumulative = 2.16293e-17
GAMG:  Solving for p_rgh, Initial residual = 3.37841e-06, Final residual = 4.87719e-09, No Iterations 5
time step continuity errors : sum local = 4.35613e-09, global = -2.35851e-20, cumulative = 2.16057e-17
ExecutionTime = 101.22 s  ClockTime = 102 s

Courant Number mean: 0.000164228 max: 0.234065
Interface Courant Number mean: 4.04877e-06 max: 0.0802121
deltaT = 0.000783779
Time = 0.0751402

PIMPLE: iteration 1
MULES: Solving for alpha.water
Phase-1 volume fraction = 0.402397  Min(alpha.water) = 0  Max(alpha.water) = 1.00018
MULES: Solving for alpha.water
Phase-1 volume fraction = 0.402397  Min(alpha.water) = 0  Max(alpha.water) = 1.00018
MULES: Solving for alpha.water
Phase-1 volume fraction = 0.402397  Min(alpha.water) = 0  Max(alpha.water) = 1.00018
GAMG:  Solving for p_rgh, Initial residual = 0.0133518, Final residual = 3.10352e-05, No Iterations 1
time step continuity errors : sum local = 3.26427e-05, global = 6.0366e-21, cumulative = 2.16117e-17
GAMG:  Solving for p_rgh, Initial residual = 4.1193e-05, Final residual = 3.24345e-07, No Iterations 3
time step continuity errors : sum local = 3.39938e-07, global = 8.01046e-21, cumulative = 2.16197e-17
GAMG:  Solving for p_rgh, Initial residual = 1.15413e-05, Final residual = 8.03329e-09, No Iterations 7
time step continuity errors : sum local = 8.42353e-09, global = -6.99891e-20, cumulative = 2.15497e-17
ExecutionTime = 106.16 s  ClockTime = 106 s

Courant Number mean: 0.000217654 max: 0.253248
Interface Courant Number mean: 9.09327e-06 max: 0.111903
deltaT = 0.000939898
Time = 0.0760801

PIMPLE: iteration 1
MULES: Solving for alpha.water
Phase-1 volume fraction = 0.402397  Min(alpha.water) = 0  Max(alpha.water) = 1.00018
MULES: Solving for alpha.water
Phase-1 volume fraction = 0.402397  Min(alpha.water) = 0  Max(alpha.water) = 1.00018
MULES: Solving for alpha.water
Phase-1 volume fraction = 0.402397  Min(alpha.water) = 0  Max(alpha.water) = 1.00018
GAMG:  Solving for p_rgh, Initial residual = 0.0322309, Final residual = 7.42509e-05, No Iterations 1
time step continuity errors : sum local = 8.87855e-05, global = -5.51563e-20, cumulative = 2.14946e-17
GAMG:  Solving for p_rgh, Initial residual = 9.0368e-05, Final residual = 7.21156e-07, No Iterations 3
time step continuity errors : sum local = 8.5454e-07, global = -9.24784e-21, cumulative = 2.14853e-17
GAMG:  Solving for p_rgh, Initial residual = 1.91416e-05, Final residual = 7.26234e-09, No Iterations 7
time step continuity errors : sum local = 8.6335e-09, global = -3.30948e-20, cumulative = 2.14522e-17
ExecutionTime = 111.04 s  ClockTime = 111 s

Courant Number mean: 0.000301014 max: 0.287347
Interface Courant Number mean: 2.242e-05 max: 0.149459
deltaT = 0.00112673
Time = 0.0772069

PIMPLE: iteration 1
MULES: Solving for alpha.water
Phase-1 volume fraction = 0.402397  Min(alpha.water) = 0  Max(alpha.water) = 1.00018
MULES: Solving for alpha.water
Phase-1 volume fraction = 0.402397  Min(alpha.water) = 0  Max(alpha.water) = 1.00018
MULES: Solving for alpha.water
Phase-1 volume fraction = 0.402397  Min(alpha.water) = 0  Max(alpha.water) = 1.00018
GAMG:  Solving for p_rgh, Initial residual = 0.060847, Final residual = 0.000145044, No Iterations 1
time step continuity errors : sum local = 0.000196301, global = -9.66468e-20, cumulative = 2.13556e-17
GAMG:  Solving for p_rgh, Initial residual = 0.000195332, Final residual = 1.51925e-06, No Iterations 3
time step continuity errors : sum local = 2.02073e-06, global = -5.60099e-20, cumulative = 2.12996e-17
GAMG:  Solving for p_rgh, Initial residual = 5.84625e-05, Final residual = 7.65676e-09, No Iterations 14
time step continuity errors : sum local = 1.01829e-08, global = -7.52255e-20, cumulative = 2.12243e-17
ExecutionTime = 116.87 s  ClockTime = 117 s

Courant Number mean: 0.000413002 max: 0.334576
Interface Courant Number mean: 3.77424e-05 max: 0.203788
deltaT = 0.00135109
Time = 0.078558

PIMPLE: iteration 1
MULES: Solving for alpha.water
Phase-1 volume fraction = 0.402397  Min(alpha.water) = 0  Max(alpha.water) = 1.00018
MULES: Solving for alpha.water
Phase-1 volume fraction = 0.402397  Min(alpha.water) = 0  Max(alpha.water) = 1.00018
MULES: Solving for alpha.water
Phase-1 volume fraction = 0.402397  Min(alpha.water) = 0  Max(alpha.water) = 1.00018
GAMG:  Solving for p_rgh, Initial residual = 0.0923524, Final residual = 0.000216417, No Iterations 1
time step continuity errors : sum local = 0.000339921, global = -6.64833e-20, cumulative = 2.11579e-17
GAMG:  Solving for p_rgh, Initial residual = 0.000267705, Final residual = 1.48285e-06, No Iterations 3
time step continuity errors : sum local = 2.29159e-06, global = -7.3679e-20, cumulative = 2.10842e-17
GAMG:  Solving for p_rgh, Initial residual = 6.10108e-05, Final residual = 7.53573e-09, No Iterations 9
time step continuity errors : sum local = 1.1662e-08, global = -6.28043e-20, cumulative = 2.10214e-17
ExecutionTime = 122.03 s  ClockTime = 122 s

Courant Number mean: 0.000529438 max: 0.398507
Interface Courant Number mean: 4.63931e-05 max: 0.240246
deltaT = 0.00161941
Time = 0.0801774

PIMPLE: iteration 1
MULES: Solving for alpha.water
Phase-1 volume fraction = 0.402397  Min(alpha.water) = 0  Max(alpha.water) = 1.00018
MULES: Solving for alpha.water
Phase-1 volume fraction = 0.402397  Min(alpha.water) = 0  Max(alpha.water) = 1.00018
MULES: Solving for alpha.water
Phase-1 volume fraction = 0.402397  Min(alpha.water) = 0  Max(alpha.water) = 1.00018
GAMG:  Solving for p_rgh, Initial residual = 0.108967, Final residual = 0.000281532, No Iterations 1
time step continuity errors : sum local = 0.000544142, global = -1.57767e-19, cumulative = 2.08636e-17
GAMG:  Solving for p_rgh, Initial residual = 0.000374371, Final residual = 3.21264e-06, No Iterations 3
time step continuity errors : sum local = 6.24889e-06, global = -1.2496e-19, cumulative = 2.07387e-17
GAMG:  Solving for p_rgh, Initial residual = 0.000117987, Final residual = 9.90473e-09, No Iterations 10
time step continuity errors : sum local = 1.92616e-08, global = -7.23265e-20, cumulative = 2.06663e-17
ExecutionTime = 127.32 s  ClockTime = 128 s

Courant Number mean: 0.000641823 max: 1.51062
Interface Courant Number mean: 4.22111e-05 max: 1.51062
deltaT = 0.000964175
Time = 0.0811415

PIMPLE: iteration 1
MULES: Solving for alpha.water
Phase-1 volume fraction = 0.402397  Min(alpha.water) = 0  Max(alpha.water) = 1.00018
MULES: Solving for alpha.water
Phase-1 volume fraction = 0.402397  Min(alpha.water) = 0  Max(alpha.water) = 1.00018
MULES: Solving for alpha.water
Phase-1 volume fraction = 0.402397  Min(alpha.water) = 0  Max(alpha.water) = 1.00018
GAMG:  Solving for p_rgh, Initial residual = 0.0497209, Final residual = 0.000127545, No Iterations 1
time step continuity errors : sum local = 0.000123352, global = -3.07794e-20, cumulative = 2.06355e-17
GAMG:  Solving for p_rgh, Initial residual = 0.000147988, Final residual = 8.15006e-07, No Iterations 3
time step continuity errors : sum local = 7.96611e-07, global = 3.75859e-20, cumulative = 2.06731e-17
GAMG:  Solving for p_rgh, Initial residual = 3.00716e-05, Final residual = 9.87698e-09, No Iterations 8
time step continuity errors : sum local = 9.69113e-09, global = -2.81883e-20, cumulative = 2.06449e-17
ExecutionTime = 132.4 s  ClockTime = 133 s

Courant Number mean: 0.000338969 max: 0.537751
Interface Courant Number mean: 1.85684e-05 max: 0.0764352
deltaT = 0.00112467
Time = 0.0822662

PIMPLE: iteration 1
MULES: Solving for alpha.water
Phase-1 volume fraction = 0.402397  Min(alpha.water) = 0  Max(alpha.water) = 1.00018
MULES: Solving for alpha.water
Phase-1 volume fraction = 0.402397  Min(alpha.water) = 0  Max(alpha.water) = 1.00018
MULES: Solving for alpha.water
Phase-1 volume fraction = 0.402397  Min(alpha.water) = 0  Max(alpha.water) = 1.00018
GAMG:  Solving for p_rgh, Initial residual = 0.0409733, Final residual = 0.000113737, No Iterations 1
time step continuity errors : sum local = 0.000138849, global = -1.48073e-20, cumulative = 2.06301e-17
GAMG:  Solving for p_rgh, Initial residual = 0.000143726, Final residual = 1.15169e-06, No Iterations 3
time step continuity errors : sum local = 1.42087e-06, global = -5.93406e-20, cumulative = 2.05708e-17
GAMG:  Solving for p_rgh, Initial residual = 3.92591e-05, Final residual = 8.78801e-09, No Iterations 8
time step continuity errors : sum local = 1.08422e-08, global = -3.03823e-20, cumulative = 2.05404e-17
ExecutionTime = 137.48 s  ClockTime = 138 s

Courant Number mean: 0.000337192 max: 0.379333
Interface Courant Number mean: 1.16644e-05 max: 0.0665082
deltaT = 0.00134763
Time = 0.0836138

PIMPLE: iteration 1
MULES: Solving for alpha.water
Phase-1 volume fraction = 0.402397  Min(alpha.water) = 0  Max(alpha.water) = 1.00018
MULES: Solving for alpha.water
Phase-1 volume fraction = 0.402397  Min(alpha.water) = 0  Max(alpha.water) = 1.00018
MULES: Solving for alpha.water
Phase-1 volume fraction = 0.402397  Min(alpha.water) = 0  Max(alpha.water) = 1.00018
GAMG:  Solving for p_rgh, Initial residual = 0.0256427, Final residual = 7.45262e-05, No Iterations 1
time step continuity errors : sum local = 0.000119101, global = 4.33902e-20, cumulative = 2.05838e-17
GAMG:  Solving for p_rgh, Initial residual = 8.93329e-05, Final residual = 6.37395e-07, No Iterations 3
time step continuity errors : sum local = 1.02671e-06, global = -3.45136e-20, cumulative = 2.05493e-17
GAMG:  Solving for p_rgh, Initial residual = 2.0527e-05, Final residual = 8.62419e-09, No Iterations 7
time step continuity errors : sum local = 1.38955e-08, global = -8.10637e-20, cumulative = 2.04682e-17
ExecutionTime = 141.55 s  ClockTime = 142 s

Courant Number mean: 0.00033964 max: 0.382332
Interface Courant Number mean: 8.47051e-06 max: 0.11486
deltaT = 0.0016162
Time = 0.08523

PIMPLE: iteration 1
MULES: Solving for alpha.water
Phase-1 volume fraction = 0.402397  Min(alpha.water) = 0  Max(alpha.water) = 1.00018
MULES: Solving for alpha.water
Phase-1 volume fraction = 0.402397  Min(alpha.water) = 0  Max(alpha.water) = 1.00017
MULES: Solving for alpha.water
Phase-1 volume fraction = 0.402397  Min(alpha.water) = 0  Max(alpha.water) = 1.00017
GAMG:  Solving for p_rgh, Initial residual = 0.0196371, Final residual = 6.51295e-05, No Iterations 1
time step continuity errors : sum local = 0.000133395, global = -1.48028e-19, cumulative = 2.03202e-17
GAMG:  Solving for p_rgh, Initial residual = 9.25277e-05, Final residual = 3.83758e-07, No Iterations 4
time step continuity errors : sum local = 7.84891e-07, global = -1.86459e-19, cumulative = 2.01337e-17
GAMG:  Solving for p_rgh, Initial residual = 3.20471e-05, Final residual = 9.96551e-09, No Iterations 7
time step continuity errors : sum local = 2.03879e-08, global = -2.17299e-19, cumulative = 1.99164e-17
ExecutionTime = 146.52 s  ClockTime = 147 s

Courant Number mean: 0.000416493 max: 0.366885
Interface Courant Number mean: 2.37256e-05 max: 0.174035
deltaT = 0.00193807
Time = 0.0871681

PIMPLE: iteration 1
MULES: Solving for alpha.water
Phase-1 volume fraction = 0.402397  Min(alpha.water) = 0  Max(alpha.water) = 1.00017
MULES: Solving for alpha.water
Phase-1 volume fraction = 0.402397  Min(alpha.water) = 0  Max(alpha.water) = 1.00017
MULES: Solving for alpha.water
Phase-1 volume fraction = 0.402397  Min(alpha.water) = 0  Max(alpha.water) = 1.00017
GAMG:  Solving for p_rgh, Initial residual = 0.0543925, Final residual = 0.000147129, No Iterations 1
time step continuity errors : sum local = 0.000369407, global = -2.26401e-19, cumulative = 1.969e-17
GAMG:  Solving for p_rgh, Initial residual = 0.000205697, Final residual = 1.2292e-06, No Iterations 4
time step continuity errors : sum local = 3.05554e-06, global = -2.42518e-19, cumulative = 1.94475e-17
GAMG:  Solving for p_rgh, Initial residual = 6.57075e-05, Final residual = 4.77585e-09, No Iterations 9
time step continuity errors : sum local = 1.18726e-08, global = -3.82829e-19, cumulative = 1.90647e-17
ExecutionTime = 151.85 s  ClockTime = 152 s

Courant Number mean: 0.000548628 max: 0.428275
Interface Courant Number mean: 4.20325e-05 max: 0.20937
deltaT = 0.00232273
Time = 0.0894908

PIMPLE: iteration 1
MULES: Solving for alpha.water
Phase-1 volume fraction = 0.402397  Min(alpha.water) = 0  Max(alpha.water) = 1.00017
MULES: Solving for alpha.water
Phase-1 volume fraction = 0.402397  Min(alpha.water) = 0  Max(alpha.water) = 1.00017
MULES: Solving for alpha.water
Phase-1 volume fraction = 0.402397  Min(alpha.water) = 0  Max(alpha.water) = 1.00017
GAMG:  Solving for p_rgh, Initial residual = 0.0914508, Final residual = 0.000259927, No Iterations 1
time step continuity errors : sum local = 0.000800893, global = -3.21237e-19, cumulative = 1.87435e-17
GAMG:  Solving for p_rgh, Initial residual = 0.000385207, Final residual = 1.79112e-06, No Iterations 4
time step continuity errors : sum local = 5.51559e-06, global = -2.0943e-19, cumulative = 1.8534e-17
GAMG:  Solving for p_rgh, Initial residual = 0.000146503, Final residual = 7.83494e-09, No Iterations 14
time step continuity errors : sum local = 2.41276e-08, global = -5.10595e-19, cumulative = 1.80234e-17
ExecutionTime = 157.68 s  ClockTime = 158 s

Courant Number mean: 0.000689577 max: 0.487731
Interface Courant Number mean: 4.22264e-05 max: 0.170303
deltaT = 0.00275078
Time = 0.0922416

PIMPLE: iteration 1
MULES: Solving for alpha.water
Phase-1 volume fraction = 0.402397  Min(alpha.water) = 0  Max(alpha.water) = 1.00017
MULES: Solving for alpha.water
Phase-1 volume fraction = 0.402397  Min(alpha.water) = 0  Max(alpha.water) = 1.00017
MULES: Solving for alpha.water
Phase-1 volume fraction = 0.402397  Min(alpha.water) = 0  Max(alpha.water) = 1.00016
GAMG:  Solving for p_rgh, Initial residual = 0.0849219, Final residual = 0.000222967, No Iterations 1
time step continuity errors : sum local = 0.000850965, global = -7.24561e-19, cumulative = 1.72989e-17
GAMG:  Solving for p_rgh, Initial residual = 0.00030848, Final residual = 1.43563e-06, No Iterations 4
time step continuity errors : sum local = 5.51665e-06, global = -1.43861e-19, cumulative = 1.7155e-17
GAMG:  Solving for p_rgh, Initial residual = 0.000101255, Final residual = 8.65767e-09, No Iterations 9
time step continuity errors : sum local = 3.32709e-08, global = -1.85137e-19, cumulative = 1.69699e-17
ExecutionTime = 162.91 s  ClockTime = 163 s

Courant Number mean: 0.000759807 max: 0.973886
Interface Courant Number mean: 1.9766e-05 max: 0.105224
deltaT = 0.00253564
Time = 0.0947773

PIMPLE: iteration 1
MULES: Solving for alpha.water
Phase-1 volume fraction = 0.402397  Min(alpha.water) = 0  Max(alpha.water) = 1.00016
MULES: Solving for alpha.water
Phase-1 volume fraction = 0.402397  Min(alpha.water) = 0  Max(alpha.water) = 1.00016
MULES: Solving for alpha.water
Phase-1 volume fraction = 0.402397  Min(alpha.water) = 0  Max(alpha.water) = 1.00016
GAMG:  Solving for p_rgh, Initial residual = 0.0316532, Final residual = 8.91093e-05, No Iterations 1
time step continuity errors : sum local = 0.000307463, global = -1.25517e-19, cumulative = 1.68444e-17
GAMG:  Solving for p_rgh, Initial residual = 0.000122997, Final residual = 1.05868e-06, No Iterations 3
time step continuity errors : sum local = 3.64834e-06, global = -7.2476e-20, cumulative = 1.67719e-17
GAMG:  Solving for p_rgh, Initial residual = 4.3492e-05, Final residual = 9.28984e-09, No Iterations 7
time step continuity errors : sum local = 3.20158e-08, global = 2.36785e-19, cumulative = 1.70087e-17
ExecutionTime = 167.93 s  ClockTime = 168 s

Courant Number mean: 0.000667318 max: 0.32667
Interface Courant Number mean: 3.36009e-05 max: 0.166726
deltaT = 0.00303766
Time = 0.0978149

PIMPLE: iteration 1
MULES: Solving for alpha.water
Phase-1 volume fraction = 0.402397  Min(alpha.water) = 0  Max(alpha.water) = 1.00016
MULES: Solving for alpha.water
Phase-1 volume fraction = 0.402397  Min(alpha.water) = 0  Max(alpha.water) = 1.00016
MULES: Solving for alpha.water
Phase-1 volume fraction = 0.402397  Min(alpha.water) = 0  Max(alpha.water) = 1.00016
GAMG:  Solving for p_rgh, Initial residual = 0.0700959, Final residual = 0.000141627, No Iterations 1
time step continuity errors : sum local = 0.000603134, global = 5.53281e-19, cumulative = 1.75619e-17
GAMG:  Solving for p_rgh, Initial residual = 0.000192204, Final residual = 1.44581e-06, No Iterations 3
time step continuity errors : sum local = 6.15547e-06, global = 3.85139e-19, cumulative = 1.79471e-17
GAMG:  Solving for p_rgh, Initial residual = 5.68264e-05, Final residual = 9.20464e-09, No Iterations 9
time step continuity errors : sum local = 3.93496e-08, global = 4.88104e-19, cumulative = 1.84352e-17
ExecutionTime = 173.08 s  ClockTime = 173 s

Courant Number mean: 0.000731621 max: 0.348841
Interface Courant Number mean: 3.85487e-05 max: 0.140377
deltaT = 0.00363784
Time = 0.101453

PIMPLE: iteration 1
MULES: Solving for alpha.water
Phase-1 volume fraction = 0.402397  Min(alpha.water) = 0  Max(alpha.water) = 1.00016
MULES: Solving for alpha.water
Phase-1 volume fraction = 0.402397  Min(alpha.water) = 0  Max(alpha.water) = 1.00015
MULES: Solving for alpha.water
Phase-1 volume fraction = 0.402397  Min(alpha.water) = 0  Max(alpha.water) = 1.00015
GAMG:  Solving for p_rgh, Initial residual = 0.0737068, Final residual = 0.000176189, No Iterations 1
time step continuity errors : sum local = 0.000939912, global = 3.6201e-19, cumulative = 1.87972e-17
GAMG:  Solving for p_rgh, Initial residual = 0.000260263, Final residual = 1.03732e-06, No Iterations 4
time step continuity errors : sum local = 5.56782e-06, global = 7.21714e-21, cumulative = 1.88044e-17
GAMG:  Solving for p_rgh, Initial residual = 0.000105739, Final residual = 8.03934e-09, No Iterations 11
time step continuity errors : sum local = 4.3151e-08, global = 7.52828e-19, cumulative = 1.95572e-17
ExecutionTime = 178.58 s  ClockTime = 179 s

Courant Number mean: 0.000824683 max: 0.588826
Interface Courant Number mean: 2.65686e-05 max: 0.155896
deltaT = 0.00417929
Time = 0.105632

PIMPLE: iteration 1
MULES: Solving for alpha.water
Phase-1 volume fraction = 0.402397  Min(alpha.water) = 0  Max(alpha.water) = 1.00015
MULES: Solving for alpha.water
Phase-1 volume fraction = 0.402397  Min(alpha.water) = 0  Max(alpha.water) = 1.00015
MULES: Solving for alpha.water
Phase-1 volume fraction = 0.402397  Min(alpha.water) = 0  Max(alpha.water) = 1.00015
GAMG:  Solving for p_rgh, Initial residual = 0.0485419, Final residual = 0.000150129, No Iterations 1
time step continuity errors : sum local = 0.000947953, global = -6.38576e-19, cumulative = 1.89187e-17
GAMG:  Solving for p_rgh, Initial residual = 0.00020873, Final residual = 1.00222e-06, No Iterations 4
time step continuity errors : sum local = 6.30138e-06, global = -1.26705e-19, cumulative = 1.8792e-17
GAMG:  Solving for p_rgh, Initial residual = 6.80176e-05, Final residual = 6.99856e-09, No Iterations 9
time step continuity errors : sum local = 4.40266e-08, global = 7.10258e-19, cumulative = 1.95022e-17
ExecutionTime = 183.83 s  ClockTime = 184 s

Courant Number mean: 0.000979053 max: 0.447232
Interface Courant Number mean: 4.56508e-05 max: 0.156464
deltaT = 0.00499647
Time = 0.110629

PIMPLE: iteration 1
MULES: Solving for alpha.water
Phase-1 volume fraction = 0.402397  Min(alpha.water) = 0  Max(alpha.water) = 1.00015
MULES: Solving for alpha.water
Phase-1 volume fraction = 0.402397  Min(alpha.water) = 0  Max(alpha.water) = 1.00015
MULES: Solving for alpha.water
Phase-1 volume fraction = 0.402397  Min(alpha.water) = 0  Max(alpha.water) = 1.00014
GAMG:  Solving for p_rgh, Initial residual = 0.0836458, Final residual = 0.000226517, No Iterations 1
time step continuity errors : sum local = 0.00176105, global = 3.99863e-19, cumulative = 1.99021e-17
GAMG:  Solving for p_rgh, Initial residual = 0.000375401, Final residual = 2.06355e-06, No Iterations 4
time step continuity errors : sum local = 1.60856e-05, global = 7.36437e-19, cumulative = 2.06385e-17
GAMG:  Solving for p_rgh, Initial residual = 0.000171941, Final residual = 7.34955e-09, No Iterations 11
time step continuity errors : sum local = 5.72919e-08, global = 8.40708e-19, cumulative = 2.14792e-17
ExecutionTime = 189.21 s  ClockTime = 190 s

Courant Number mean: 0.00131688 max: 0.820842
Interface Courant Number mean: 6.01385e-05 max: 0.245016
deltaT = 0.00545627
Time = 0.116085

PIMPLE: iteration 1
MULES: Solving for alpha.water
Phase-1 volume fraction = 0.402397  Min(alpha.water) = 0  Max(alpha.water) = 1.00014
MULES: Solving for alpha.water
Phase-1 volume fraction = 0.402397  Min(alpha.water) = 0  Max(alpha.water) = 1.00014
MULES: Solving for alpha.water
Phase-1 volume fraction = 0.402397  Min(alpha.water) = 0  Max(alpha.water) = 1.00013
GAMG:  Solving for p_rgh, Initial residual = 0.100286, Final residual = 0.000205201, No Iterations 1
time step continuity errors : sum local = 0.00176668, global = 7.46881e-19, cumulative = 2.22261e-17
GAMG:  Solving for p_rgh, Initial residual = 0.000290713, Final residual = 2.85567e-06, No Iterations 3
time step continuity errors : sum local = 2.44746e-05, global = 1.06839e-18, cumulative = 2.32945e-17
GAMG:  Solving for p_rgh, Initial residual = 9.42891e-05, Final residual = 8.59735e-09, No Iterations 10
time step continuity errors : sum local = 7.40185e-08, global = 3.7022e-19, cumulative = 2.36647e-17
ExecutionTime = 193.72 s  ClockTime = 194 s

Courant Number mean: 0.00121457 max: 0.885622
Interface Courant Number mean: 5.14184e-05 max: 0.238309
deltaT = 0.00552447
Time = 0.121609

PIMPLE: iteration 1
MULES: Solving for alpha.water
Phase-1 volume fraction = 0.402397  Min(alpha.water) = 0  Max(alpha.water) = 1.00013
MULES: Solving for alpha.water
Phase-1 volume fraction = 0.402397  Min(alpha.water) = 0  Max(alpha.water) = 1.00013
MULES: Solving for alpha.water
Phase-1 volume fraction = 0.402397  Min(alpha.water) = 0  Max(alpha.water) = 1.00013
GAMG:  Solving for p_rgh, Initial residual = 0.0761055, Final residual = 0.000196306, No Iterations 1
time step continuity errors : sum local = 0.00170711, global = 2.39761e-19, cumulative = 2.39045e-17
GAMG:  Solving for p_rgh, Initial residual = 0.000313508, Final residual = 1.62504e-06, No Iterations 4
time step continuity errors : sum local = 1.41069e-05, global = 3.91054e-19, cumulative = 2.42955e-17
GAMG:  Solving for p_rgh, Initial residual = 0.000136986, Final residual = 5.14064e-09, No Iterations 12
time step continuity errors : sum local = 4.4661e-08, global = 1.66462e-18, cumulative = 2.59602e-17
ExecutionTime = 199.22 s  ClockTime = 200 s

Courant Number mean: 0.00125374 max: 1.01641
Interface Courant Number mean: 5.11406e-05 max: 0.208362
deltaT = 0.00487995
Time = 0.126489

PIMPLE: iteration 1
MULES: Solving for alpha.water
Phase-1 volume fraction = 0.402397  Min(alpha.water) = 0  Max(alpha.water) = 1.00013
MULES: Solving for alpha.water
Phase-1 volume fraction = 0.402397  Min(alpha.water) = 0  Max(alpha.water) = 1.00013
MULES: Solving for alpha.water
Phase-1 volume fraction = 0.402397  Min(alpha.water) = 0  Max(alpha.water) = 1.00012
GAMG:  Solving for p_rgh, Initial residual = 0.0676878, Final residual = 0.000191977, No Iterations 1
time step continuity errors : sum local = 0.0014262, global = 7.62689e-19, cumulative = 2.67228e-17
GAMG:  Solving for p_rgh, Initial residual = 0.000248082, Final residual = 1.84393e-06, No Iterations 3
time step continuity errors : sum local = 1.36908e-05, global = 6.08208e-19, cumulative = 2.73311e-17
GAMG:  Solving for p_rgh, Initial residual = 7.16132e-05, Final residual = 9.63365e-09, No Iterations 8
time step continuity errors : sum local = 7.15234e-08, global = 1.18409e-18, cumulative = 2.85151e-17
ExecutionTime = 204.21 s  ClockTime = 205 s

Courant Number mean: 0.00104345 max: 0.449764
Interface Courant Number mean: 2.74265e-05 max: 0.161407
deltaT = 0.00582341
Time = 0.132313

PIMPLE: iteration 1
MULES: Solving for alpha.water
Phase-1 volume fraction = 0.402397  Min(alpha.water) = 0  Max(alpha.water) = 1.00013
MULES: Solving for alpha.water
Phase-1 volume fraction = 0.402397  Min(alpha.water) = 0  Max(alpha.water) = 1.00013
MULES: Solving for alpha.water
Phase-1 volume fraction = 0.402397  Min(alpha.water) = 0  Max(alpha.water) = 1.00014
GAMG:  Solving for p_rgh, Initial residual = 0.0441907, Final residual = 0.000131962, No Iterations 1
time step continuity errors : sum local = 0.00121175, global = -6.44189e-19, cumulative = 2.78709e-17
GAMG:  Solving for p_rgh, Initial residual = 0.000196705, Final residual = 9.46213e-07, No Iterations 4
time step continuity errors : sum local = 8.69579e-06, global = 6.85019e-19, cumulative = 2.8556e-17
GAMG:  Solving for p_rgh, Initial residual = 8.05962e-05, Final residual = 4.64472e-09, No Iterations 11
time step continuity errors : sum local = 4.26966e-08, global = 8.19131e-19, cumulative = 2.93751e-17
ExecutionTime = 209.72 s  ClockTime = 210 s

Courant Number mean: 0.00139199 max: 0.654201
Interface Courant Number mean: 4.40353e-05 max: 0.174728
deltaT = 0.00662357
Time = 0.138936

PIMPLE: iteration 1
MULES: Solving for alpha.water
Phase-1 volume fraction = 0.402397  Min(alpha.water) = 0  Max(alpha.water) = 1.00013
MULES: Solving for alpha.water
Phase-1 volume fraction = 0.402397  Min(alpha.water) = 0  Max(alpha.water) = 1.00013
MULES: Solving for alpha.water
Phase-1 volume fraction = 0.402397  Min(alpha.water) = 0  Max(alpha.water) = 1.00013
GAMG:  Solving for p_rgh, Initial residual = 0.0708025, Final residual = 0.000214081, No Iterations 1
time step continuity errors : sum local = 0.00227641, global = 3.44515e-19, cumulative = 2.97196e-17
GAMG:  Solving for p_rgh, Initial residual = 0.000276359, Final residual = 1.21545e-06, No Iterations 4
time step continuity errors : sum local = 1.29234e-05, global = -1.13443e-18, cumulative = 2.85852e-17
GAMG:  Solving for p_rgh, Initial residual = 8.40234e-05, Final residual = 7.78998e-09, No Iterations 9
time step continuity errors : sum local = 8.27731e-08, global = 1.77366e-19, cumulative = 2.87625e-17
ExecutionTime = 215.06 s  ClockTime = 215 s

Courant Number mean: 0.0017888 max: 0.556052
Interface Courant Number mean: 8.85633e-05 max: 0.294148
deltaT = 0.00768807
Time = 0.146624

PIMPLE: iteration 1
MULES: Solving for alpha.water
Phase-1 volume fraction = 0.402397  Min(alpha.water) = 0  Max(alpha.water) = 1.00012
MULES: Solving for alpha.water
Phase-1 volume fraction = 0.402397  Min(alpha.water) = 0  Max(alpha.water) = 1.0001
MULES: Solving for alpha.water
Phase-1 volume fraction = 0.402397  Min(alpha.water) = 0  Max(alpha.water) = 1.00009
GAMG:  Solving for p_rgh, Initial residual = 0.150007, Final residual = 0.000478986, No Iterations 1
time step continuity errors : sum local = 0.00609282, global = -1.24856e-18, cumulative = 2.7514e-17
GAMG:  Solving for p_rgh, Initial residual = 0.000664416, Final residual = 5.90499e-06, No Iterations 3
time step continuity errors : sum local = 7.50804e-05, global = 8.14278e-19, cumulative = 2.83283e-17
GAMG:  Solving for p_rgh, Initial residual = 0.000240658, Final residual = 7.46424e-09, No Iterations 12
time step continuity errors : sum local = 9.49759e-08, global = 8.48652e-19, cumulative = 2.91769e-17
ExecutionTime = 220.54 s  ClockTime = 221 s

Courant Number mean: 0.00505773 max: 1.6893
Interface Courant Number mean: 0.000358766 max: 1.22486
deltaT = 0.00408314
Time = 0.150707

PIMPLE: iteration 1
MULES: Solving for alpha.water
Phase-1 volume fraction = 0.402397  Min(alpha.water) = 0  Max(alpha.water) = 1.00009
MULES: Solving for alpha.water
Phase-1 volume fraction = 0.402397  Min(alpha.water) = 0  Max(alpha.water) = 1.00009
MULES: Solving for alpha.water
Phase-1 volume fraction = 0.402397  Min(alpha.water) = 0  Max(alpha.water) = 1.00009
GAMG:  Solving for p_rgh, Initial residual = 0.287368, Final residual = 0.000714721, No Iterations 1
time step continuity errors : sum local = 0.00445027, global = 4.37004e-19, cumulative = 2.96139e-17
GAMG:  Solving for p_rgh, Initial residual = 0.000974905, Final residual = 8.68925e-06, No Iterations 3
time step continuity errors : sum local = 5.19081e-05, global = 5.5425e-19, cumulative = 3.01682e-17
GAMG:  Solving for p_rgh, Initial residual = 0.000268922, Final residual = 9.82315e-09, No Iterations 11
time step continuity errors : sum local = 5.87112e-08, global = 8.71743e-19, cumulative = 3.10399e-17
ExecutionTime = 225.8 s  ClockTime = 226 s

Courant Number mean: 0.00219309 max: 1.38131
Interface Courant Number mean: 8.36194e-05 max: 0.302925
deltaT = 0.00265404
Time = 0.153361

PIMPLE: iteration 1
MULES: Solving for alpha.water
Phase-1 volume fraction = 0.402397  Min(alpha.water) = 0  Max(alpha.water) = 1.0001
MULES: Solving for alpha.water
Phase-1 volume fraction = 0.402397  Min(alpha.water) = 0  Max(alpha.water) = 1.0001
MULES: Solving for alpha.water
Phase-1 volume fraction = 0.402397  Min(alpha.water) = 0  Max(alpha.water) = 1.0001
GAMG:  Solving for p_rgh, Initial residual = 0.0828861, Final residual = 0.000205856, No Iterations 1
time step continuity errors : sum local = 0.000775472, global = 5.74486e-19, cumulative = 3.16144e-17
GAMG:  Solving for p_rgh, Initial residual = 0.000303073, Final residual = 2.75516e-06, No Iterations 3
time step continuity errors : sum local = 1.02985e-05, global = 5.0836e-19, cumulative = 3.21228e-17
GAMG:  Solving for p_rgh, Initial residual = 0.000113875, Final residual = 7.374e-09, No Iterations 13
time step continuity errors : sum local = 2.75562e-08, global = 4.64619e-19, cumulative = 3.25874e-17
ExecutionTime = 231.11 s  ClockTime = 231 s

Courant Number mean: 0.00132273 max: 0.41829
Interface Courant Number mean: 8.7157e-05 max: 0.298566
deltaT = 0.00318285
Time = 0.156544

PIMPLE: iteration 1
MULES: Solving for alpha.water
Phase-1 volume fraction = 0.402397  Min(alpha.water) = 0  Max(alpha.water) = 1.00011
MULES: Solving for alpha.water
Phase-1 volume fraction = 0.402397  Min(alpha.water) = 0  Max(alpha.water) = 1.00011
MULES: Solving for alpha.water
Phase-1 volume fraction = 0.402397  Min(alpha.water) = 0  Max(alpha.water) = 1.00012
GAMG:  Solving for p_rgh, Initial residual = 0.150143, Final residual = 0.000336646, No Iterations 1
time step continuity errors : sum local = 0.00156462, global = 7.67994e-20, cumulative = 3.26642e-17
GAMG:  Solving for p_rgh, Initial residual = 0.000435634, Final residual = 2.65825e-06, No Iterations 3
time step continuity errors : sum local = 1.23089e-05, global = 5.5596e-19, cumulative = 3.32201e-17
GAMG:  Solving for p_rgh, Initial residual = 0.00011531, Final residual = 8.11599e-09, No Iterations 9
time step continuity errors : sum local = 3.76732e-08, global = 3.50164e-19, cumulative = 3.35703e-17
ExecutionTime = 235.61 s  ClockTime = 236 s

Courant Number mean: 0.0013989 max: 0.540222
Interface Courant Number mean: 4.68361e-05 max: 0.143068
deltaT = 0.00369937
Time = 0.160244

PIMPLE: iteration 1
MULES: Solving for alpha.water
Phase-1 volume fraction = 0.402397  Min(alpha.water) = 0  Max(alpha.water) = 1.00012
MULES: Solving for alpha.water
Phase-1 volume fraction = 0.402397  Min(alpha.water) = 0  Max(alpha.water) = 1.00013
MULES: Solving for alpha.water
Phase-1 volume fraction = 0.402397  Min(alpha.water) = 0  Max(alpha.water) = 1.00013
GAMG:  Solving for p_rgh, Initial residual = 0.0756599, Final residual = 0.000238046, No Iterations 1
time step continuity errors : sum local = 0.00131583, global = 6.73097e-19, cumulative = 3.42434e-17
GAMG:  Solving for p_rgh, Initial residual = 0.00030784, Final residual = 2.16437e-06, No Iterations 3
time step continuity errors : sum local = 1.20021e-05, global = 6.16342e-19, cumulative = 3.48597e-17
GAMG:  Solving for p_rgh, Initial residual = 9.75934e-05, Final residual = 9.6226e-09, No Iterations 9
time step continuity errors : sum local = 5.33819e-08, global = 5.13092e-19, cumulative = 3.53728e-17
ExecutionTime = 240.8 s  ClockTime = 241 s

Courant Number mean: 0.00195653 max: 0.498026
Interface Courant Number mean: 8.9092e-05 max: 0.298232
deltaT = 0.00435107
Time = 0.164595

PIMPLE: iteration 1
MULES: Solving for alpha.water
Phase-1 volume fraction = 0.402397  Min(alpha.water) = 0  Max(alpha.water) = 1.00014
MULES: Solving for alpha.water
Phase-1 volume fraction = 0.402397  Min(alpha.water) = 0  Max(alpha.water) = 1.00015
MULES: Solving for alpha.water
Phase-1 volume fraction = 0.402397  Min(alpha.water) = 0  Max(alpha.water) = 1.00016
GAMG:  Solving for p_rgh, Initial residual = 0.143572, Final residual = 0.000278906, No Iterations 1
time step continuity errors : sum local = 0.0018863, global = 4.81703e-19, cumulative = 3.58545e-17
GAMG:  Solving for p_rgh, Initial residual = 0.000392763, Final residual = 2.72117e-06, No Iterations 3
time step continuity errors : sum local = 1.82611e-05, global = 7.81327e-19, cumulative = 3.66359e-17
GAMG:  Solving for p_rgh, Initial residual = 0.000119135, Final residual = 9.4459e-09, No Iterations 9
time step continuity errors : sum local = 6.34504e-08, global = -1.14403e-19, cumulative = 3.65215e-17
ExecutionTime = 245.63 s  ClockTime = 246 s

Courant Number mean: 0.00173024 max: 0.693502
Interface Courant Number mean: 4.15761e-05 max: 0.143605
deltaT = 0.00491415
Time = 0.169509

PIMPLE: iteration 1
MULES: Solving for alpha.water
Phase-1 volume fraction = 0.402397  Min(alpha.water) = 0  Max(alpha.water) = 1.00017
MULES: Solving for alpha.water
Phase-1 volume fraction = 0.402397  Min(alpha.water) = 0  Max(alpha.water) = 1.00017
MULES: Solving for alpha.water
Phase-1 volume fraction = 0.402397  Min(alpha.water) = 0  Max(alpha.water) = 1.00018
GAMG:  Solving for p_rgh, Initial residual = 0.0610507, Final residual = 0.000155921, No Iterations 1
time step continuity errors : sum local = 0.00120672, global = 3.11226e-19, cumulative = 3.68327e-17
GAMG:  Solving for p_rgh, Initial residual = 0.000233539, Final residual = 1.04387e-06, No Iterations 4
time step continuity errors : sum local = 8.09006e-06, global = 4.67057e-19, cumulative = 3.72997e-17
GAMG:  Solving for p_rgh, Initial residual = 9.98917e-05, Final residual = 9.48315e-09, No Iterations 9
time step continuity errors : sum local = 7.37599e-08, global = 1.24065e-19, cumulative = 3.74238e-17
ExecutionTime = 250.9 s  ClockTime = 251 s

Courant Number mean: 0.00179588 max: 0.418288
Interface Courant Number mean: 0.000103221 max: 0.267545
deltaT = 0.00589001
Time = 0.175399

PIMPLE: iteration 1
MULES: Solving for alpha.water
Phase-1 volume fraction = 0.402397  Min(alpha.water) = 0  Max(alpha.water) = 1.00017
MULES: Solving for alpha.water
Phase-1 volume fraction = 0.402397  Min(alpha.water) = 0  Max(alpha.water) = 1.00016
MULES: Solving for alpha.water
Phase-1 volume fraction = 0.402397  Min(alpha.water) = 0  Max(alpha.water) = 1.00015
GAMG:  Solving for p_rgh, Initial residual = 0.163963, Final residual = 0.0003401, No Iterations 1
time step continuity errors : sum local = 0.00326057, global = -9.70442e-19, cumulative = 3.64534e-17
GAMG:  Solving for p_rgh, Initial residual = 0.00047222, Final residual = 1.66583e-06, No Iterations 4
time step continuity errors : sum local = 1.57602e-05, global = -1.11252e-18, cumulative = 3.53409e-17
GAMG:  Solving for p_rgh, Initial residual = 0.000145799, Final residual = 8.02348e-09, No Iterations 10
time step continuity errors : sum local = 7.61554e-08, global = -1.28103e-18, cumulative = 3.40598e-17
ExecutionTime = 256.33 s  ClockTime = 257 s

Courant Number mean: 0.00302481 max: 0.996819
Interface Courant Number mean: 0.00018559 max: 0.584696
deltaT = 0.0052859
Time = 0.180685

PIMPLE: iteration 1
MULES: Solving for alpha.water
Phase-1 volume fraction = 0.402397  Min(alpha.water) = 0  Max(alpha.water) = 1.00014
MULES: Solving for alpha.water
Phase-1 volume fraction = 0.402397  Min(alpha.water) = 0  Max(alpha.water) = 1.00013
MULES: Solving for alpha.water
Phase-1 volume fraction = 0.402397  Min(alpha.water) = 0  Max(alpha.water) = 1.00012
GAMG:  Solving for p_rgh, Initial residual = 0.219117, Final residual = 0.000495545, No Iterations 1
time step continuity errors : sum local = 0.00429688, global = -7.36589e-19, cumulative = 3.33232e-17
GAMG:  Solving for p_rgh, Initial residual = 0.000848326, Final residual = 4.32004e-06, No Iterations 4
time step continuity errors : sum local = 3.63239e-05, global = 1.34372e-18, cumulative = 3.4667e-17
GAMG:  Solving for p_rgh, Initial residual = 0.000408614, Final residual = 6.24085e-09, No Iterations 12
time step continuity errors : sum local = 5.25829e-08, global = -5.44513e-19, cumulative = 3.41224e-17
ExecutionTime = 261.95 s  ClockTime = 262 s

Courant Number mean: 0.00262554 max: 1.42416
Interface Courant Number mean: 0.000166262 max: 0.477242
deltaT = 0.00333055
Time = 0.184015

PIMPLE: iteration 1
MULES: Solving for alpha.water
Phase-1 volume fraction = 0.402397  Min(alpha.water) = 0  Max(alpha.water) = 1.00012
MULES: Solving for alpha.water
Phase-1 volume fraction = 0.402397  Min(alpha.water) = 0  Max(alpha.water) = 1.00013
MULES: Solving for alpha.water
Phase-1 volume fraction = 0.402397  Min(alpha.water) = 0  Max(alpha.water) = 1.00013
GAMG:  Solving for p_rgh, Initial residual = 0.136236, Final residual = 0.000291882, No Iterations 1
time step continuity errors : sum local = 0.00150594, global = 9.11899e-20, cumulative = 3.42136e-17
GAMG:  Solving for p_rgh, Initial residual = 0.0003851, Final residual = 2.45994e-06, No Iterations 3
time step continuity errors : sum local = 1.2636e-05, global = -3.78009e-19, cumulative = 3.38356e-17
GAMG:  Solving for p_rgh, Initial residual = 0.000105535, Final residual = 8.20846e-09, No Iterations 9
time step continuity errors : sum local = 4.22724e-08, global = 3.63541e-19, cumulative = 3.41992e-17
ExecutionTime = 267.15 s  ClockTime = 268 s

Courant Number mean: 0.0013214 max: 0.42302
Interface Courant Number mean: 6.36213e-05 max: 0.202326
deltaT = 0.00398041
Time = 0.187996

PIMPLE: iteration 1
MULES: Solving for alpha.water
Phase-1 volume fraction = 0.402397  Min(alpha.water) = 0  Max(alpha.water) = 1.00013
MULES: Solving for alpha.water
Phase-1 volume fraction = 0.402397  Min(alpha.water) = 0  Max(alpha.water) = 1.00014
MULES: Solving for alpha.water
Phase-1 volume fraction = 0.402397  Min(alpha.water) = 0  Max(alpha.water) = 1.00014
GAMG:  Solving for p_rgh, Initial residual = 0.0976537, Final residual = 0.000246187, No Iterations 1
time step continuity errors : sum local = 0.00154857, global = 9.76958e-19, cumulative = 3.51761e-17
GAMG:  Solving for p_rgh, Initial residual = 0.000358747, Final residual = 3.18756e-06, No Iterations 3
time step continuity errors : sum local = 1.99858e-05, global = 1.49747e-18, cumulative = 3.66736e-17
GAMG:  Solving for p_rgh, Initial residual = 0.000140321, Final residual = 6.29134e-09, No Iterations 10
time step continuity errors : sum local = 3.9441e-08, global = 1.32152e-18, cumulative = 3.79951e-17
ExecutionTime = 272.53 s  ClockTime = 273 s

Courant Number mean: 0.00177074 max: 0.473019
Interface Courant Number mean: 9.14612e-05 max: 0.307509
deltaT = 0.00472096
Time = 0.192717

PIMPLE: iteration 1
MULES: Solving for alpha.water
Phase-1 volume fraction = 0.402397  Min(alpha.water) = 0  Max(alpha.water) = 1.00014
MULES: Solving for alpha.water
Phase-1 volume fraction = 0.402397  Min(alpha.water) = 0  Max(alpha.water) = 1.00015
MULES: Solving for alpha.water
Phase-1 volume fraction = 0.402397  Min(alpha.water) = 0  Max(alpha.water) = 1.00015
GAMG:  Solving for p_rgh, Initial residual = 0.136125, Final residual = 0.000284009, No Iterations 1
time step continuity errors : sum local = 0.00218801, global = 1.28263e-18, cumulative = 3.92777e-17
GAMG:  Solving for p_rgh, Initial residual = 0.00038067, Final residual = 2.48306e-06, No Iterations 3
time step continuity errors : sum local = 1.89847e-05, global = 1.20047e-18, cumulative = 4.04782e-17
GAMG:  Solving for p_rgh, Initial residual = 0.000109329, Final residual = 4.69339e-09, No Iterations 10
time step continuity errors : sum local = 3.5942e-08, global = 1.27421e-18, cumulative = 4.17524e-17
ExecutionTime = 277.8 s  ClockTime = 278 s

Courant Number mean: 0.00148187 max: 0.717168
Interface Courant Number mean: 3.97632e-05 max: 0.120114
deltaT = 0.00531107
Time = 0.198028

PIMPLE: iteration 1
MULES: Solving for alpha.water
Phase-1 volume fraction = 0.402397  Min(alpha.water) = 0  Max(alpha.water) = 1.00015
MULES: Solving for alpha.water
Phase-1 volume fraction = 0.402397  Min(alpha.water) = 0  Max(alpha.water) = 1.00015
MULES: Solving for alpha.water
Phase-1 volume fraction = 0.402397  Min(alpha.water) = 0  Max(alpha.water) = 1.00014
GAMG:  Solving for p_rgh, Initial residual = 0.0536909, Final residual = 0.000128377, No Iterations 1
time step continuity errors : sum local = 0.00112358, global = -8.6428e-20, cumulative = 4.1666e-17
GAMG:  Solving for p_rgh, Initial residual = 0.000202945, Final residual = 1.03043e-06, No Iterations 4
time step continuity errors : sum local = 9.02543e-06, global = 7.26762e-19, cumulative = 4.23927e-17
GAMG:  Solving for p_rgh, Initial residual = 9.26058e-05, Final residual = 5.49351e-09, No Iterations 10
time step continuity errors : sum local = 4.81621e-08, global = -3.94697e-19, cumulative = 4.1998e-17
ExecutionTime = 283.2 s  ClockTime = 284 s

Courant Number mean: 0.00180445 max: 0.472938
Interface Courant Number mean: 0.000111716 max: 0.290161
deltaT = 0.00631474
Time = 0.204343

PIMPLE: iteration 1
MULES: Solving for alpha.water
Phase-1 volume fraction = 0.402397  Min(alpha.water) = 0  Max(alpha.water) = 1.00015
MULES: Solving for alpha.water
Phase-1 volume fraction = 0.402397  Min(alpha.water) = 0  Max(alpha.water) = 1.00017
MULES: Solving for alpha.water
Phase-1 volume fraction = 0.402397  Min(alpha.water) = 0  Max(alpha.water) = 1.00018
GAMG:  Solving for p_rgh, Initial residual = 0.164551, Final residual = 0.000374254, No Iterations 1
time step continuity errors : sum local = 0.00399783, global = 1.0491e-18, cumulative = 4.30471e-17
GAMG:  Solving for p_rgh, Initial residual = 0.000494064, Final residual = 2.04313e-06, No Iterations 4
time step continuity errors : sum local = 2.14764e-05, global = -6.81057e-19, cumulative = 4.23661e-17
GAMG:  Solving for p_rgh, Initial residual = 0.000141161, Final residual = 6.46893e-09, No Iterations 10
time step continuity errors : sum local = 6.80025e-08, global = -2.09554e-18, cumulative = 4.02705e-17
ExecutionTime = 288.67 s  ClockTime = 289 s

Courant Number mean: 0.00359177 max: 0.985424
Interface Courant Number mean: 0.000264216 max: 0.698428
deltaT = 0.00576563
Time = 0.210108

PIMPLE: iteration 1
MULES: Solving for alpha.water
Phase-1 volume fraction = 0.402397  Min(alpha.water) = 0  Max(alpha.water) = 1.00018
MULES: Solving for alpha.water
Phase-1 volume fraction = 0.402397  Min(alpha.water) = 0  Max(alpha.water) = 1.00018
MULES: Solving for alpha.water
Phase-1 volume fraction = 0.402397  Min(alpha.water) = 0  Max(alpha.water) = 1.00019
GAMG:  Solving for p_rgh, Initial residual = 0.302556, Final residual = 0.000689666, No Iterations 1
time step continuity errors : sum local = 0.00693514, global = 8.69099e-19, cumulative = 4.11396e-17
GAMG:  Solving for p_rgh, Initial residual = 0.00116255, Final residual = 5.55762e-06, No Iterations 4
time step continuity errors : sum local = 5.19395e-05, global = -3.32237e-18, cumulative = 3.78173e-17
GAMG:  Solving for p_rgh, Initial residual = 0.00052638, Final residual = 8.05428e-09, No Iterations 14
time step continuity errors : sum local = 7.52741e-08, global = -2.62378e-18, cumulative = 3.51935e-17
ExecutionTime = 293.61 s  ClockTime = 294 s

Courant Number mean: 0.00499984 max: 2.84258
Interface Courant Number mean: 0.000362991 max: 0.89074
deltaT = 0.00182423
Time = 0.211932

PIMPLE: iteration 1
MULES: Solving for alpha.water
Phase-1 volume fraction = 0.402397  Min(alpha.water) = 0  Max(alpha.water) = 1.00019
MULES: Solving for alpha.water
Phase-1 volume fraction = 0.402397  Min(alpha.water) = 0  Max(alpha.water) = 1.00019
MULES: Solving for alpha.water
Phase-1 volume fraction = 0.402397  Min(alpha.water) = 0  Max(alpha.water) = 1.00019
GAMG:  Solving for p_rgh, Initial residual = 0.14268, Final residual = 0.000292376, No Iterations 1
time step continuity errors : sum local = 0.000779292, global = -6.55837e-19, cumulative = 3.45377e-17
GAMG:  Solving for p_rgh, Initial residual = 0.000377386, Final residual = 2.43009e-06, No Iterations 3
time step continuity errors : sum local = 6.44307e-06, global = -4.74803e-19, cumulative = 3.40629e-17
GAMG:  Solving for p_rgh, Initial residual = 9.4754e-05, Final residual = 8.96187e-09, No Iterations 9
time step continuity errors : sum local = 2.38352e-08, global = -4.396e-19, cumulative = 3.36233e-17
ExecutionTime = 298.82 s  ClockTime = 299 s

Courant Number mean: 0.00135484 max: 0.523219
Interface Courant Number mean: 0.000109195 max: 0.259547
deltaT = 0.00213568
Time = 0.214068

PIMPLE: iteration 1
MULES: Solving for alpha.water
Phase-1 volume fraction = 0.402397  Min(alpha.water) = 0  Max(alpha.water) = 1.0002
MULES: Solving for alpha.water
Phase-1 volume fraction = 0.402397  Min(alpha.water) = 0  Max(alpha.water) = 1.0002
MULES: Solving for alpha.water
Phase-1 volume fraction = 0.402397  Min(alpha.water) = 0  Max(alpha.water) = 1.0002
GAMG:  Solving for p_rgh, Initial residual = 0.155243, Final residual = 0.000408061, No Iterations 1
time step continuity errors : sum local = 0.00131292, global = -2.70759e-19, cumulative = 3.33525e-17
GAMG:  Solving for p_rgh, Initial residual = 0.000557481, Final residual = 4.75877e-06, No Iterations 3
time step continuity errors : sum local = 1.50862e-05, global = -3.18155e-19, cumulative = 3.30343e-17
GAMG:  Solving for p_rgh, Initial residual = 0.000186962, Final residual = 7.85455e-09, No Iterations 12
time step continuity errors : sum local = 2.49992e-08, global = -3.11939e-19, cumulative = 3.27224e-17
ExecutionTime = 304.36 s  ClockTime = 305 s

Courant Number mean: 0.00122809 max: 0.372885
Interface Courant Number mean: 6.51037e-05 max: 0.150556
deltaT = 0.00256004
Time = 0.216628

PIMPLE: iteration 1
MULES: Solving for alpha.water
Phase-1 volume fraction = 0.402397  Min(alpha.water) = 0  Max(alpha.water) = 1.0002
MULES: Solving for alpha.water
Phase-1 volume fraction = 0.402397  Min(alpha.water) = 0  Max(alpha.water) = 1.00019
MULES: Solving for alpha.water
Phase-1 volume fraction = 0.402397  Min(alpha.water) = 0  Max(alpha.water) = 1.00019
GAMG:  Solving for p_rgh, Initial residual = 0.0960568, Final residual = 0.000241102, No Iterations 1
time step continuity errors : sum local = 0.000940119, global = -2.72859e-19, cumulative = 3.24495e-17
GAMG:  Solving for p_rgh, Initial residual = 0.000303086, Final residual = 2.98374e-06, No Iterations 3
time step continuity errors : sum local = 1.15836e-05, global = -5.89249e-19, cumulative = 3.18603e-17
GAMG:  Solving for p_rgh, Initial residual = 7.90459e-05, Final residual = 6.27587e-09, No Iterations 10
time step continuity errors : sum local = 2.44183e-08, global = -7.44004e-20, cumulative = 3.17859e-17
ExecutionTime = 309.69 s  ClockTime = 310 s

Courant Number mean: 0.00128818 max: 0.353565
Interface Courant Number mean: 5.85471e-05 max: 0.166231
deltaT = 0.00306005
Time = 0.219688

PIMPLE: iteration 1
MULES: Solving for alpha.water
Phase-1 volume fraction = 0.402397  Min(alpha.water) = 0  Max(alpha.water) = 1.00019
MULES: Solving for alpha.water
Phase-1 volume fraction = 0.402397  Min(alpha.water) = 0  Max(alpha.water) = 1.00019
MULES: Solving for alpha.water
Phase-1 volume fraction = 0.402397  Min(alpha.water) = 0  Max(alpha.water) = 1.0002
GAMG:  Solving for p_rgh, Initial residual = 0.0842474, Final residual = 0.00020158, No Iterations 1
time step continuity errors : sum local = 0.00097661, global = -1.67611e-19, cumulative = 3.16183e-17
GAMG:  Solving for p_rgh, Initial residual = 0.000296558, Final residual = 2.87231e-06, No Iterations 3
time step continuity errors : sum local = 1.38641e-05, global = -2.74626e-19, cumulative = 3.13437e-17
GAMG:  Solving for p_rgh, Initial residual = 0.000115163, Final residual = 6.52525e-09, No Iterations 11
time step continuity errors : sum local = 3.15081e-08, global = -2.86181e-19, cumulative = 3.10575e-17
ExecutionTime = 315.13 s  ClockTime = 316 s

Courant Number mean: 0.00166929 max: 0.309786
Interface Courant Number mean: 0.000140203 max: 0.309786
deltaT = 0.00366344
Time = 0.223352

PIMPLE: iteration 1
MULES: Solving for alpha.water
Phase-1 volume fraction = 0.402397  Min(alpha.water) = 0  Max(alpha.water) = 1.0002
MULES: Solving for alpha.water
Phase-1 volume fraction = 0.402397  Min(alpha.water) = 0  Max(alpha.water) = 1.00021
MULES: Solving for alpha.water
Phase-1 volume fraction = 0.402397  Min(alpha.water) = 0  Max(alpha.water) = 1.00022
GAMG:  Solving for p_rgh, Initial residual = 0.197674, Final residual = 0.000341592, No Iterations 1
time step continuity errors : sum local = 0.00206602, global = -1.839e-19, cumulative = 3.08736e-17
GAMG:  Solving for p_rgh, Initial residual = 0.000470321, Final residual = 2.54906e-06, No Iterations 3
time step continuity errors : sum local = 1.50203e-05, global = -2.39711e-19, cumulative = 3.06339e-17
GAMG:  Solving for p_rgh, Initial residual = 0.000132353, Final residual = 9.90467e-09, No Iterations 9
time step continuity errors : sum local = 5.84933e-08, global = -1.92455e-19, cumulative = 3.04414e-17
ExecutionTime = 320.28 s  ClockTime = 321 s

Courant Number mean: 0.00162968 max: 0.601206
Interface Courant Number mean: 3.81845e-05 max: 0.0869014
deltaT = 0.0041981
Time = 0.22755

PIMPLE: iteration 1
MULES: Solving for alpha.water
Phase-1 volume fraction = 0.402397  Min(alpha.water) = 0  Max(alpha.water) = 1.00022
MULES: Solving for alpha.water
Phase-1 volume fraction = 0.402397  Min(alpha.water) = 0  Max(alpha.water) = 1.00022
MULES: Solving for alpha.water
Phase-1 volume fraction = 0.402397  Min(alpha.water) = 0  Max(alpha.water) = 1.00023
GAMG:  Solving for p_rgh, Initial residual = 0.050917, Final residual = 0.000115958, No Iterations 1
time step continuity errors : sum local = 0.000800633, global = 1.50473e-19, cumulative = 3.05919e-17
GAMG:  Solving for p_rgh, Initial residual = 0.000180241, Final residual = 9.20995e-07, No Iterations 4
time step continuity errors : sum local = 6.35086e-06, global = 2.41471e-19, cumulative = 3.08334e-17
GAMG:  Solving for p_rgh, Initial residual = 7.98065e-05, Final residual = 6.90418e-09, No Iterations 10
time step continuity errors : sum local = 4.75985e-08, global = -7.81116e-19, cumulative = 3.00522e-17
ExecutionTime = 325.77 s  ClockTime = 326 s

Courant Number mean: 0.00219953 max: 0.51302
Interface Courant Number mean: 0.000167941 max: 0.365974
deltaT = 0.00492007
Time = 0.23247

PIMPLE: iteration 1
MULES: Solving for alpha.water
Phase-1 volume fraction = 0.402397  Min(alpha.water) = 0  Max(alpha.water) = 1.00024
MULES: Solving for alpha.water
Phase-1 volume fraction = 0.402397  Min(alpha.water) = 0  Max(alpha.water) = 1.00024
MULES: Solving for alpha.water
Phase-1 volume fraction = 0.402397  Min(alpha.water) = 0  Max(alpha.water) = 1.00025
GAMG:  Solving for p_rgh, Initial residual = 0.232183, Final residual = 0.000476225, No Iterations 1
time step continuity errors : sum local = 0.00403747, global = -1.11086e-19, cumulative = 2.99412e-17
GAMG:  Solving for p_rgh, Initial residual = 0.000670738, Final residual = 3.23802e-06, No Iterations 4
time step continuity errors : sum local = 2.63672e-05, global = -3.00592e-19, cumulative = 2.96406e-17
GAMG:  Solving for p_rgh, Initial residual = 0.000206591, Final residual = 7.7302e-09, No Iterations 11
time step continuity errors : sum local = 6.2923e-08, global = -7.99132e-19, cumulative = 2.88414e-17
ExecutionTime = 331.28 s  ClockTime = 332 s

Courant Number mean: 0.00278264 max: 0.953014
Interface Courant Number mean: 0.000103991 max: 0.287767
deltaT = 0.00462368
Time = 0.237093

PIMPLE: iteration 1
MULES: Solving for alpha.water
Phase-1 volume fraction = 0.402397  Min(alpha.water) = 0  Max(alpha.water) = 1.00025
MULES: Solving for alpha.water
Phase-1 volume fraction = 0.402397  Min(alpha.water) = 0  Max(alpha.water) = 1.00025
MULES: Solving for alpha.water
Phase-1 volume fraction = 0.402397  Min(alpha.water) = 0  Max(alpha.water) = 1.00025
GAMG:  Solving for p_rgh, Initial residual = 0.115051, Final residual = 0.000257028, No Iterations 1
time step continuity errors : sum local = 0.00200217, global = -3.78673e-19, cumulative = 2.84628e-17
GAMG:  Solving for p_rgh, Initial residual = 0.000402486, Final residual = 1.68739e-06, No Iterations 4
time step continuity errors : sum local = 1.307e-05, global = -1.02762e-18, cumulative = 2.74351e-17
GAMG:  Solving for p_rgh, Initial residual = 0.000175782, Final residual = 8.57984e-09, No Iterations 12
time step continuity errors : sum local = 6.6591e-08, global = -7.13779e-20, cumulative = 2.73638e-17
ExecutionTime = 337 s  ClockTime = 337 s

Courant Number mean: 0.00194332 max: 0.618262
Interface Courant Number mean: 6.60273e-05 max: 0.137192
deltaT = 0.00526142
Time = 0.242355

PIMPLE: iteration 1
MULES: Solving for alpha.water
Phase-1 volume fraction = 0.402397  Min(alpha.water) = 0  Max(alpha.water) = 1.00027
MULES: Solving for alpha.water
Phase-1 volume fraction = 0.402397  Min(alpha.water) = 0  Max(alpha.water) = 1.00029
MULES: Solving for alpha.water
Phase-1 volume fraction = 0.402397  Min(alpha.water) = 0  Max(alpha.water) = 1.0003
GAMG:  Solving for p_rgh, Initial residual = 0.0872381, Final residual = 0.000140183, No Iterations 1
time step continuity errors : sum local = 0.00125568, global = 2.43921e-19, cumulative = 2.76077e-17
GAMG:  Solving for p_rgh, Initial residual = 0.000205132, Final residual = 1.62148e-06, No Iterations 3
time step continuity errors : sum local = 1.44573e-05, global = -2.67715e-19, cumulative = 2.734e-17
GAMG:  Solving for p_rgh, Initial residual = 6.67857e-05, Final residual = 8.73615e-09, No Iterations 9
time step continuity errors : sum local = 7.78864e-08, global = -7.20859e-19, cumulative = 2.66191e-17
ExecutionTime = 342.18 s  ClockTime = 343 s

Courant Number mean: 0.00246891 max: 0.515304
Interface Courant Number mean: 0.000155034 max: 0.332185
deltaT = 0.00615972
Time = 0.248515

PIMPLE: iteration 1
MULES: Solving for alpha.water
Phase-1 volume fraction = 0.402397  Min(alpha.water) = 0  Max(alpha.water) = 1.0003
MULES: Solving for alpha.water
Phase-1 volume fraction = 0.402397  Min(alpha.water) = 0  Max(alpha.water) = 1.00029
MULES: Solving for alpha.water
Phase-1 volume fraction = 0.402397  Min(alpha.water) = 0  Max(alpha.water) = 1.00029
GAMG:  Solving for p_rgh, Initial residual = 0.213764, Final residual = 0.000550747, No Iterations 1
time step continuity errors : sum local = 0.00596951, global = -4.15436e-19, cumulative = 2.62037e-17
GAMG:  Solving for p_rgh, Initial residual = 0.000864078, Final residual = 4.46245e-06, No Iterations 4
time step continuity errors : sum local = 4.67066e-05, global = -3.59127e-19, cumulative = 2.58445e-17
GAMG:  Solving for p_rgh, Initial residual = 0.000374829, Final residual = 8.2278e-09, No Iterations 13
time step continuity errors : sum local = 8.64123e-08, global = 2.29871e-19, cumulative = 2.60744e-17
ExecutionTime = 347.92 s  ClockTime = 348 s

Courant Number mean: 0.00483107 max: 1.38167
Interface Courant Number mean: 0.000305347 max: 0.712774
deltaT = 0.00399726
Time = 0.252512

PIMPLE: iteration 1
MULES: Solving for alpha.water
Phase-1 volume fraction = 0.402397  Min(alpha.water) = 0  Max(alpha.water) = 1.00027
MULES: Solving for alpha.water
Phase-1 volume fraction = 0.402397  Min(alpha.water) = 0  Max(alpha.water) = 1.00026
MULES: Solving for alpha.water
[...]
MULES: Solving for alpha.water
Phase-1 volume fraction = 0.402397  Min(alpha.water) = 2.97974e-192  Max(alpha.water) = 1.00015
MULES: Solving for alpha.water
Phase-1 volume fraction = 0.402397  Min(alpha.water) = 2.98027e-192  Max(alpha.water) = 1.00015
GAMG:  Solving for p_rgh, Initial residual = 0.027912, Final residual = 7.81884e-05, No Iterations 1
time step continuity errors : sum local = 0.000491649, global = -1.0802e-18, cumulative = -7.55537e-17
GAMG:  Solving for p_rgh, Initial residual = 0.000150172, Final residual = 1.33367e-06, No Iterations 4
time step continuity errors : sum local = 8.36369e-06, global = -7.1551e-19, cumulative = -7.62692e-17
GAMG:  Solving for p_rgh, Initial residual = 8.19306e-05, Final residual = 8.995e-09, No Iterations 15
time step continuity errors : sum local = 5.64131e-08, global = -7.79975e-19, cumulative = -7.70492e-17
ExecutionTime = 5020.52 s  ClockTime = 5026 s

Courant Number mean: 0.0028662 max: 0.73055
Interface Courant Number mean: 3.53338e-05 max: 0.493179
deltaT = 0.00394696
Time = 3.67635

PIMPLE: iteration 1
MULES: Solving for alpha.water
Phase-1 volume fraction = 0.402397  Min(alpha.water) = 2.98166e-192  Max(alpha.water) = 1.00015
MULES: Solving for alpha.water
Phase-1 volume fraction = 0.402397  Min(alpha.water) = 2.98305e-192  Max(alpha.water) = 1.00015
MULES: Solving for alpha.water
Phase-1 volume fraction = 0.402397  Min(alpha.water) = 2.98444e-192  Max(alpha.water) = 1.00015
GAMG:  Solving for p_rgh, Initial residual = 0.0315368, Final residual = 8.64121e-05, No Iterations 1
time step continuity errors : sum local = 0.000616583, global = -8.03616e-19, cumulative = -7.78528e-17
GAMG:  Solving for p_rgh, Initial residual = 0.000164041, Final residual = 1.63043e-06, No Iterations 4
time step continuity errors : sum local = 1.15918e-05, global = -1.47392e-19, cumulative = -7.80002e-17
GAMG:  Solving for p_rgh, Initial residual = 8.89463e-05, Final residual = 9.16147e-09, No Iterations 11
time step continuity errors : sum local = 6.51575e-08, global = -1.17955e-18, cumulative = -7.91797e-17
ExecutionTime = 5026.01 s  ClockTime = 5031 s

Courant Number mean: 0.00323229 max: 1.07126
Interface Courant Number mean: 3.99479e-05 max: 0.543495
deltaT = 0.00330256
Time = 3.67965

PIMPLE: iteration 1
MULES: Solving for alpha.water
Phase-1 volume fraction = 0.402397  Min(alpha.water) = 2.98573e-192  Max(alpha.water) = 1.00014
MULES: Solving for alpha.water
Phase-1 volume fraction = 0.402397  Min(alpha.water) = 2.98702e-192  Max(alpha.water) = 1.00014
MULES: Solving for alpha.water
Phase-1 volume fraction = 0.402397  Min(alpha.water) = 2.98832e-192  Max(alpha.water) = 1.00014
GAMG:  Solving for p_rgh, Initial residual = 0.0266632, Final residual = 7.23715e-05, No Iterations 1
time step continuity errors : sum local = 0.000422942, global = -7.33624e-19, cumulative = -7.99134e-17
GAMG:  Solving for p_rgh, Initial residual = 0.000137452, Final residual = 1.18816e-06, No Iterations 4
time step continuity errors : sum local = 6.92543e-06, global = -6.79497e-19, cumulative = -8.05929e-17
GAMG:  Solving for p_rgh, Initial residual = 7.33739e-05, Final residual = 9.14057e-09, No Iterations 15
time step continuity errors : sum local = 5.32731e-08, global = -9.60681e-19, cumulative = -8.15535e-17
ExecutionTime = 5031.1 s  ClockTime = 5036 s

Courant Number mean: 0.0027077 max: 1.04814
Interface Courant Number mean: 3.37934e-05 max: 0.452599
deltaT = 0.00283494
Time = 3.68249

PIMPLE: iteration 1
MULES: Solving for alpha.water
Phase-1 volume fraction = 0.402397  Min(alpha.water) = 2.98991e-192  Max(alpha.water) = 1.00014
MULES: Solving for alpha.water
Phase-1 volume fraction = 0.402397  Min(alpha.water) = 2.99151e-192  Max(alpha.water) = 1.00014
MULES: Solving for alpha.water
Phase-1 volume fraction = 0.402397  Min(alpha.water) = 2.9931e-192  Max(alpha.water) = 1.00014
GAMG:  Solving for p_rgh, Initial residual = 0.0229966, Final residual = 5.71208e-05, No Iterations 1
time step continuity errors : sum local = 0.000281036, global = -4.28617e-19, cumulative = -8.19822e-17
GAMG:  Solving for p_rgh, Initial residual = 0.000104553, Final residual = 1.04275e-06, No Iterations 4
time step continuity errors : sum local = 5.12014e-06, global = -7.702e-19, cumulative = -8.27524e-17
GAMG:  Solving for p_rgh, Initial residual = 5.32384e-05, Final residual = 7.47598e-09, No Iterations 11
time step continuity errors : sum local = 3.67876e-08, global = -5.28612e-19, cumulative = -8.3281e-17
ExecutionTime = 5037.03 s  ClockTime = 5042 s

Courant Number mean: 0.00233072 max: 0.74982
Interface Courant Number mean: 2.92837e-05 max: 0.394402
deltaT = 0.00317513
Time = 3.68566

PIMPLE: iteration 1
MULES: Solving for alpha.water
Phase-1 volume fraction = 0.402397  Min(alpha.water) = 2.99418e-192  Max(alpha.water) = 1.00013
MULES: Solving for alpha.water
Phase-1 volume fraction = 0.402397  Min(alpha.water) = 2.99526e-192  Max(alpha.water) = 1.00013
MULES: Solving for alpha.water
Phase-1 volume fraction = 0.402397  Min(alpha.water) = 2.99634e-192  Max(alpha.water) = 1.00012
GAMG:  Solving for p_rgh, Initial residual = 0.0258993, Final residual = 6.86081e-05, No Iterations 1
time step continuity errors : sum local = 0.000383339, global = -6.80559e-19, cumulative = -8.39615e-17
GAMG:  Solving for p_rgh, Initial residual = 0.00012976, Final residual = 1.15895e-06, No Iterations 4
time step continuity errors : sum local = 6.46036e-06, global = -4.78073e-19, cumulative = -8.44396e-17
GAMG:  Solving for p_rgh, Initial residual = 6.89099e-05, Final residual = 9.16185e-09, No Iterations 13
time step continuity errors : sum local = 5.10734e-08, global = -1.25208e-18, cumulative = -8.56917e-17
ExecutionTime = 5042.88 s  ClockTime = 5048 s

Courant Number mean: 0.00261235 max: 0.84953
Interface Courant Number mean: 3.27252e-05 max: 0.412609
deltaT = 0.00334402
Time = 3.68901

PIMPLE: iteration 1
MULES: Solving for alpha.water
Phase-1 volume fraction = 0.402397  Min(alpha.water) = 2.9994e-192  Max(alpha.water) = 1.00012
MULES: Solving for alpha.water
Phase-1 volume fraction = 0.402397  Min(alpha.water) = 3.00246e-192  Max(alpha.water) = 1.00012
MULES: Solving for alpha.water
Phase-1 volume fraction = 0.402397  Min(alpha.water) = 3.00552e-192  Max(alpha.water) = 1.00012
GAMG:  Solving for p_rgh, Initial residual = 0.0273897, Final residual = 6.98879e-05, No Iterations 1
time step continuity errors : sum local = 0.000413944, global = -1.12927e-18, cumulative = -8.68209e-17
GAMG:  Solving for p_rgh, Initial residual = 0.0001302, Final residual = 1.29452e-06, No Iterations 4
time step continuity errors : sum local = 7.64735e-06, global = -9.01993e-19, cumulative = -8.77229e-17
GAMG:  Solving for p_rgh, Initial residual = 6.85099e-05, Final residual = 8.29244e-09, No Iterations 12
time step continuity errors : sum local = 4.91651e-08, global = -1.81122e-18, cumulative = -8.95342e-17
ExecutionTime = 5048.53 s  ClockTime = 5054 s

Courant Number mean: 0.00276521 max: 0.921047
Interface Courant Number mean: 3.45394e-05 max: 0.459783
deltaT = 0.00323952
Time = 3.69225

PIMPLE: iteration 1
MULES: Solving for alpha.water
Phase-1 volume fraction = 0.402397  Min(alpha.water) = 3.00757e-192  Max(alpha.water) = 1.00013
MULES: Solving for alpha.water
Phase-1 volume fraction = 0.402397  Min(alpha.water) = 3.00962e-192  Max(alpha.water) = 1.00015
MULES: Solving for alpha.water
Phase-1 volume fraction = 0.402397  Min(alpha.water) = 3.01167e-192  Max(alpha.water) = 1.00016
GAMG:  Solving for p_rgh, Initial residual = 0.0266915, Final residual = 7.13901e-05, No Iterations 1
time step continuity errors : sum local = 0.000408147, global = -1.20976e-18, cumulative = -9.07439e-17
GAMG:  Solving for p_rgh, Initial residual = 0.000134255, Final residual = 1.20864e-06, No Iterations 4
time step continuity errors : sum local = 6.89245e-06, global = -1.32154e-18, cumulative = -9.20655e-17
GAMG:  Solving for p_rgh, Initial residual = 7.08626e-05, Final residual = 9.65038e-09, No Iterations 15
time step continuity errors : sum local = 5.50376e-08, global = -1.30268e-18, cumulative = -9.33681e-17
ExecutionTime = 5054.53 s  ClockTime = 5060 s

Courant Number mean: 0.00267971 max: 0.949151
Interface Courant Number mean: 3.34658e-05 max: 0.444171
deltaT = 0.00304707
Time = 3.69529

PIMPLE: iteration 1
MULES: Solving for alpha.water
Phase-1 volume fraction = 0.402397  Min(alpha.water) = 3.01456e-192  Max(alpha.water) = 1.00016
MULES: Solving for alpha.water
Phase-1 volume fraction = 0.402397  Min(alpha.water) = 3.01745e-192  Max(alpha.water) = 1.00016
MULES: Solving for alpha.water
Phase-1 volume fraction = 0.402397  Min(alpha.water) = 3.02034e-192  Max(alpha.water) = 1.00016
GAMG:  Solving for p_rgh, Initial residual = 0.0252012, Final residual = 6.36664e-05, No Iterations 1
time step continuity errors : sum local = 0.000339753, global = -9.09001e-19, cumulative = -9.42771e-17
GAMG:  Solving for p_rgh, Initial residual = 0.000116301, Final residual = 5.50542e-07, No Iterations 5
time step continuity errors : sum local = 2.93121e-06, global = -1.43194e-18, cumulative = -9.57091e-17
GAMG:  Solving for p_rgh, Initial residual = 6.03072e-05, Final residual = 9.87336e-09, No Iterations 9
time step continuity errors : sum local = 5.26452e-08, global = -1.08088e-18, cumulative = -9.679e-17
ExecutionTime = 5060 s  ClockTime = 5065 s

Courant Number mean: 0.0025247 max: 0.732142
Interface Courant Number mean: 3.15275e-05 max: 0.409201
deltaT = 0.00338564
Time = 3.69868

PIMPLE: iteration 1
MULES: Solving for alpha.water
Phase-1 volume fraction = 0.402397  Min(alpha.water) = 3.02236e-192  Max(alpha.water) = 1.00016
MULES: Solving for alpha.water
Phase-1 volume fraction = 0.402397  Min(alpha.water) = -2.36678e-11  Max(alpha.water) = 1.00017
MULES: Solving for alpha.water
Phase-1 volume fraction = 0.402397  Min(alpha.water) = 3.02641e-192  Max(alpha.water) = 1.00018
GAMG:  Solving for p_rgh, Initial residual = 0.0281922, Final residual = 7.53535e-05, No Iterations 1
time step continuity errors : sum local = 0.000452532, global = -1.10884e-18, cumulative = -9.78988e-17
GAMG:  Solving for p_rgh, Initial residual = 0.000142637, Final residual = 1.29444e-06, No Iterations 4
time step continuity errors : sum local = 7.75326e-06, global = -1.09615e-18, cumulative = -9.8995e-17
GAMG:  Solving for p_rgh, Initial residual = 7.633e-05, Final residual = 9.79334e-09, No Iterations 14
time step continuity errors : sum local = 5.86569e-08, global = -1.13087e-18, cumulative = -1.00126e-16
ExecutionTime = 5065.92 s  ClockTime = 5071 s

Courant Number mean: 0.0028084 max: 0.731482
Interface Courant Number mean: 3.50433e-05 max: 0.460912
deltaT = 0.00376652
Time = 3.70244

PIMPLE: iteration 1
MULES: Solving for alpha.water
Phase-1 volume fraction = 0.402397  Min(alpha.water) = 3.02641e-192  Max(alpha.water) = 1.00018
MULES: Solving for alpha.water
Phase-1 volume fraction = 0.402397  Min(alpha.water) = 3.02642e-192  Max(alpha.water) = 1.00018
MULES: Solving for alpha.water
Phase-1 volume fraction = 0.402397  Min(alpha.water) = 3.02642e-192  Max(alpha.water) = 1.00018
GAMG:  Solving for p_rgh, Initial residual = 0.0313357, Final residual = 8.40078e-05, No Iterations 1
time step continuity errors : sum local = 0.000568716, global = -9.92055e-19, cumulative = -1.01118e-16
GAMG:  Solving for p_rgh, Initial residual = 0.000154921, Final residual = 7.42089e-07, No Iterations 5
time step continuity errors : sum local = 5.00865e-06, global = -9.56246e-19, cumulative = -1.02074e-16
GAMG:  Solving for p_rgh, Initial residual = 8.16662e-05, Final residual = 9.02298e-09, No Iterations 11
time step continuity errors : sum local = 6.09458e-08, global = -6.63145e-20, cumulative = -1.0214e-16
ExecutionTime = 5071.61 s  ClockTime = 5077 s

Courant Number mean: 0.00313632 max: 1.08645
Interface Courant Number mean: 3.86477e-05 max: 0.544287
deltaT = 0.00309953
Time = 3.70554

PIMPLE: iteration 1
MULES: Solving for alpha.water
Phase-1 volume fraction = 0.402397  Min(alpha.water) = 3.0268e-192  Max(alpha.water) = 1.00018
MULES: Solving for alpha.water
Phase-1 volume fraction = 0.402397  Min(alpha.water) = 3.02718e-192  Max(alpha.water) = 1.00018
MULES: Solving for alpha.water
Phase-1 volume fraction = 0.402397  Min(alpha.water) = 3.02756e-192  Max(alpha.water) = 1.00019
GAMG:  Solving for p_rgh, Initial residual = 0.0254768, Final residual = 6.77993e-05, No Iterations 1
time step continuity errors : sum local = 0.000369599, global = -3.5611e-19, cumulative = -1.02497e-16
GAMG:  Solving for p_rgh, Initial residual = 0.000126216, Final residual = 1.12512e-06, No Iterations 4
time step continuity errors : sum local = 6.12183e-06, global = -5.51089e-19, cumulative = -1.03048e-16
GAMG:  Solving for p_rgh, Initial residual = 6.65654e-05, Final residual = 9.6537e-09, No Iterations 13
time step continuity errors : sum local = 5.25235e-08, global = -3.14899e-19, cumulative = -1.03363e-16
ExecutionTime = 5076.31 s  ClockTime = 5082 s

Courant Number mean: 0.00257844 max: 0.971372
Interface Courant Number mean: 3.16925e-05 max: 0.426098
deltaT = 0.00285879
Time = 3.7084

PIMPLE: iteration 1
MULES: Solving for alpha.water
Phase-1 volume fraction = 0.402397  Min(alpha.water) = 3.02801e-192  Max(alpha.water) = 1.00019
MULES: Solving for alpha.water
Phase-1 volume fraction = 0.402397  Min(alpha.water) = 3.02847e-192  Max(alpha.water) = 1.00019
MULES: Solving for alpha.water
Phase-1 volume fraction = 0.402397  Min(alpha.water) = 3.02893e-192  Max(alpha.water) = 1.00019
GAMG:  Solving for p_rgh, Initial residual = 0.023274, Final residual = 5.90832e-05, No Iterations 1
time step continuity errors : sum local = 0.000294449, global = -6.32518e-19, cumulative = -1.03995e-16
GAMG:  Solving for p_rgh, Initial residual = 0.000107487, Final residual = 1.05862e-06, No Iterations 4
time step continuity errors : sum local = 5.26682e-06, global = -1.60026e-19, cumulative = -1.04155e-16
GAMG:  Solving for p_rgh, Initial residual = 5.37024e-05, Final residual = 7.60491e-09, No Iterations 12
time step continuity errors : sum local = 3.81764e-08, global = -4.66841e-19, cumulative = -1.04622e-16
ExecutionTime = 5081.89 s  ClockTime = 5087 s

Courant Number mean: 0.00238128 max: 0.710342
Interface Courant Number mean: 2.92979e-05 max: 0.426576
deltaT = 0.00320436
Time = 3.71161

PIMPLE: iteration 1
MULES: Solving for alpha.water
Phase-1 volume fraction = 0.402397  Min(alpha.water) = 3.03093e-192  Max(alpha.water) = 1.00016
MULES: Solving for alpha.water
Phase-1 volume fraction = 0.402397  Min(alpha.water) = 3.03293e-192  Max(alpha.water) = 1.00013
MULES: Solving for alpha.water
Phase-1 volume fraction = 0.402397  Min(alpha.water) = 3.03493e-192  Max(alpha.water) = 1.00011
GAMG:  Solving for p_rgh, Initial residual = 0.0260549, Final residual = 7.09697e-05, No Iterations 1
time step continuity errors : sum local = 0.000402229, global = -3.56735e-19, cumulative = -1.04979e-16
GAMG:  Solving for p_rgh, Initial residual = 0.000133379, Final residual = 1.20128e-06, No Iterations 4
time step continuity errors : sum local = 6.79378e-06, global = -2.85007e-19, cumulative = -1.05264e-16
GAMG:  Solving for p_rgh, Initial residual = 7.08064e-05, Final residual = 9.84256e-09, No Iterations 13
time step continuity errors : sum local = 5.58731e-08, global = -7.84256e-19, cumulative = -1.06048e-16
ExecutionTime = 5087.91 s  ClockTime = 5093 s

Courant Number mean: 0.0026666 max: 1.04044
Interface Courant Number mean: 3.29341e-05 max: 0.454128
deltaT = 0.00274659
Time = 3.71435

PIMPLE: iteration 1
MULES: Solving for alpha.water
Phase-1 volume fraction = 0.402397  Min(alpha.water) = 3.03493e-192  Max(alpha.water) = 1.00011
MULES: Solving for alpha.water
Phase-1 volume fraction = 0.402397  Min(alpha.water) = 3.03494e-192  Max(alpha.water) = 1.00011
MULES: Solving for alpha.water
Phase-1 volume fraction = 0.402397  Min(alpha.water) = 3.03494e-192  Max(alpha.water) = 1.0001
GAMG:  Solving for p_rgh, Initial residual = 0.0222894, Final residual = 5.5144e-05, No Iterations 1
time step continuity errors : sum local = 0.000262793, global = -5.97271e-19, cumulative = -1.06645e-16
GAMG:  Solving for p_rgh, Initial residual = 9.9789e-05, Final residual = 9.59999e-07, No Iterations 4
time step continuity errors : sum local = 4.56687e-06, global = -5.46935e-19, cumulative = -1.07192e-16
GAMG:  Solving for p_rgh, Initial residual = 5.05771e-05, Final residual = 9.83878e-09, No Iterations 10
time step continuity errors : sum local = 4.68225e-08, global = -4.78908e-19, cumulative = -1.07671e-16
ExecutionTime = 5093.37 s  ClockTime = 5099 s

Courant Number mean: 0.00228792 max: 0.695513
Interface Courant Number mean: 2.8434e-05 max: 0.391895
deltaT = 0.00307146
Time = 3.71743

PIMPLE: iteration 1
MULES: Solving for alpha.water
Phase-1 volume fraction = 0.402397  Min(alpha.water) = 3.03494e-192  Max(alpha.water) = 1.00011
MULES: Solving for alpha.water
Phase-1 volume fraction = 0.402397  Min(alpha.water) = 3.03495e-192  Max(alpha.water) = 1.00012
MULES: Solving for alpha.water
Phase-1 volume fraction = 0.402397  Min(alpha.water) = 3.03495e-192  Max(alpha.water) = 1.00013
GAMG:  Solving for p_rgh, Initial residual = 0.0250152, Final residual = 6.67571e-05, No Iterations 1
time step continuity errors : sum local = 0.000360656, global = -6.22901e-19, cumulative = -1.08294e-16
GAMG:  Solving for p_rgh, Initial residual = 0.000125234, Final residual = 1.09685e-06, No Iterations 4
time step continuity errors : sum local = 5.91233e-06, global = -3.22977e-19, cumulative = -1.08617e-16
GAMG:  Solving for p_rgh, Initial residual = 6.61229e-05, Final residual = 8.82524e-09, No Iterations 13
time step continuity errors : sum local = 4.76018e-08, global = -5.84318e-19, cumulative = -1.09201e-16
ExecutionTime = 5099.2 s  ClockTime = 5105 s

Courant Number mean: 0.00255759 max: 0.689442
Interface Courant Number mean: 3.18094e-05 max: 0.415446
deltaT = 0.00344603
Time = 3.72087

PIMPLE: iteration 1
MULES: Solving for alpha.water
Phase-1 volume fraction = 0.402397  Min(alpha.water) = 3.03495e-192  Max(alpha.water) = 1.00013
MULES: Solving for alpha.water
Phase-1 volume fraction = 0.402397  Min(alpha.water) = 3.03495e-192  Max(alpha.water) = 1.00013
MULES: Solving for alpha.water
Phase-1 volume fraction = 0.402397  Min(alpha.water) = 3.03496e-192  Max(alpha.water) = 1.00013
GAMG:  Solving for p_rgh, Initial residual = 0.0281327, Final residual = 7.37525e-05, No Iterations 1
time step continuity errors : sum local = 0.000453114, global = -4.74641e-19, cumulative = -1.09676e-16
GAMG:  Solving for p_rgh, Initial residual = 0.000137708, Final residual = 6.40145e-07, No Iterations 5
time step continuity errors : sum local = 3.92164e-06, global = -5.64174e-19, cumulative = -1.1024e-16
GAMG:  Solving for p_rgh, Initial residual = 7.43356e-05, Final residual = 7.81421e-09, No Iterations 11
time step continuity errors : sum local = 4.79262e-08, global = -5.31662e-19, cumulative = -1.10772e-16
ExecutionTime = 5105.01 s  ClockTime = 5110 s

Courant Number mean: 0.00288315 max: 1.20322
Interface Courant Number mean: 3.54931e-05 max: 0.477789
deltaT = 0.00256081
Time = 3.72343

PIMPLE: iteration 1
MULES: Solving for alpha.water
Phase-1 volume fraction = 0.402397  Min(alpha.water) = 3.03496e-192  Max(alpha.water) = 1.00013
MULES: Solving for alpha.water
Phase-1 volume fraction = 0.402397  Min(alpha.water) = 3.03496e-192  Max(alpha.water) = 1.00013
MULES: Solving for alpha.water
Phase-1 volume fraction = 0.402397  Min(alpha.water) = 3.03496e-192  Max(alpha.water) = 1.00014
GAMG:  Solving for p_rgh, Initial residual = 0.0208166, Final residual = 5.20673e-05, No Iterations 1
time step continuity errors : sum local = 0.000229003, global = -4.06534e-19, cumulative = -1.11178e-16
GAMG:  Solving for p_rgh, Initial residual = 9.59567e-05, Final residual = 8.26694e-07, No Iterations 4
time step continuity errors : sum local = 3.63001e-06, global = -5.01325e-19, cumulative = -1.1168e-16
